geometry optimzed in LAMMPS
_audit_creation_date              2020-12-01 
_audit_creation_method            'lammps2cif' 
_symmetry_space_group_name_H-M    'P1' 
_symmetry_Int_Tables_number       1 
_symmetry_cell_setting            triclinic 
loop_ 
_symmetry_equiv_pos_as_xyz 
  x,y,z 
_cell_length_a                    36.9670307 
_cell_length_b                    28.093675430831837 
_cell_length_c                    38.25291139233064 
_cell_angle_alpha                 89.05754811802232 
_cell_angle_beta                  93.03505339490374 
_cell_angle_gamma                 90.0703399958594 
loop_ 
_atom_site_label 
_atom_site_type_symbol 
_atom_site_fract_x 
_atom_site_fract_y 
_atom_site_fract_z 
_atom_site_charge 
C1          C  0.77767763  0.10104258  0.41416650     0.29700
C2          C  0.82017973  0.04179181  0.37898911     0.29700
C3          C  0.79924619  0.12561249  0.38483327    -0.06500
C4          C  0.80660587  0.07450070  0.43572536    -0.07300
C5          C  0.75670897  0.06108706  0.39409252    -0.07200
C6          C  0.82102922  0.09544677  0.36665316    -0.06500
C7          C  0.82851141  0.04407659  0.41868099    -0.07300
C8          C  0.77855861  0.03109110  0.37582177    -0.07200
C9          C  0.83025649  0.12108292  0.33655752    -0.32600
N10         N  0.81652934  0.16613666  0.33680293     0.13900
C11         C  0.79607273  0.16809838  0.36532232    -0.32600
H12         H  0.77735870  0.19664940  0.36960370     0.15900
C13         C  0.85263751  0.02459629  0.44424297    -0.31500
N14         N  0.84534519  0.04406535  0.47555758     0.12700
C15         C  0.81716737  0.07417829  0.47030952    -0.31500
C16         C  0.75411143  0.50587631  0.35498710    -0.31800
N17         N  0.71902342  0.51709182  0.36000050     0.13200
H18         H  0.76205459  0.48295353  0.33435287     0.15800
C19         C  0.72076604  0.05126935  0.38296070    -0.31800
H20         H  0.69703004  0.07153542  0.38872334     0.15800
H21         H  0.80494078  0.09417185  0.49059302     0.15800
H22         H  0.84291280  0.10667462  0.31423271     0.15900
H23         H  0.87269634  0.50271668  0.44143709     0.15800
O24         O  0.68559633  0.26161780  0.38729968    -0.82100
C25         C  0.60810341  0.21156242  0.26295831     0.97200
O26         O  0.63534852  0.18897270  0.27717210    -0.71200
O27         O  0.69695513  0.22907419  0.29222177    -0.74800
Al28       Al  0.66562996  0.19437239  0.31989593     1.49000
C29         C  0.71554775  0.26549003  0.29875954     0.92500
O30         O  0.64702292  0.32569347  0.31163428    -0.81000
O31         O  0.59148090  0.24466740  0.37746451    -0.74600
Al32       Al  0.66565452  0.29302306  0.34983215     1.90100
O33         O  0.59123585  0.31958849  0.32580425    -0.73700
O34         O  0.58499144  0.17503182  0.32352870    -0.73500
O35         O  0.59351041  0.24589478  0.27823610    -0.79200
O36         O  0.63725885  0.15288207  0.34510829    -0.77400
O37         O  0.64201165  0.24364293  0.33240681    -1.13500
O38         O  0.69724956  0.19386081  0.36183856    -0.72700
C39         C  0.69747041  0.22042764  0.38859361     0.98000
C40         C  0.61804480  0.34554415  0.31697376     0.94400
Al41       Al  0.59331623  0.24631063  0.32725062     1.55600
O42         O  0.70943759  0.29005649  0.32483901    -0.77300
C43         C  0.60839436  0.14204588  0.32882608     0.98600
C44         C  0.60797614  0.27571428  0.39631349     0.93400
O45         O  0.62784454  0.30676933  0.38199593    -0.82700
C46         C  0.65448366  0.35256820  0.10347788     0.29700
C47         C  0.62656490  0.28004613  0.14025952     0.29700
C48         C  0.63967867  0.36768518  0.13823139    -0.06500
C49         C  0.62131815  0.32772171  0.08624319    -0.07300
C50         C  0.68210887  0.31169545  0.11517760    -0.07200
C51         C  0.62569668  0.33083519  0.15760272    -0.06500
C52         C  0.60758012  0.28828784  0.10371875    -0.07300
C53         C  0.66669478  0.27257362  0.13055758    -0.07200
C54         C  0.61481418  0.35164791  0.18853737    -0.32600
N55         N  0.62082328  0.39988237  0.18741474     0.13900
C56         C  0.63625565  0.40942718  0.15686392    -0.32600
H57         H  0.64627331  0.44416641  0.15041468     0.15900
C58         C  0.59532565  0.25822237  0.07657456    -0.31500
N59         N  0.59659725  0.28188942  0.04511149     0.12700
C60         C  0.61134252  0.32495367  0.05163139    -0.31500
C61         C  0.69489341  0.24260172  0.14306601    -0.31800
N62         N  0.72662319  0.26645822  0.14379517     0.13200
H63         H  0.69223399  0.20795782  0.15534107     0.15800
C64         C  0.71889289  0.30929030  0.12766848    -0.31800
H65         H  0.73754510  0.33860323  0.12878057     0.15800
H66         H  0.62113906  0.34855897  0.03151488     0.15800
H67         H  0.60447972  0.33264547  0.21074738     0.15900
H68         H  0.59075155  0.22031898  0.07927257     0.15800
O69         O  0.75465457  0.50894068  0.12562457    -0.82100
C70         C  0.82866558  0.49097874  0.25698342     0.97200
O71         O  0.80070507  0.46707645  0.24786986    -0.71200
O72         O  0.74706299  0.52163686  0.22821286    -0.74800
Al73       Al  0.76842855  0.47006204  0.20633920     1.49000
C74         C  0.72134147  0.03664662  0.21252299     0.92500
O75         O  0.78859996  0.09780457  0.18449849    -0.81000
O76         O  0.84565567  0.49900128  0.13964217    -0.74600
Al77       Al  0.77313428  0.05200280  0.15596061     1.90100
O78         O  0.84697366  0.07993252  0.18441588    -0.73700
O79         O  0.84579958  0.43865240  0.19713425    -0.73500
O80         O  0.84271228  0.01742894  0.23641180    -0.79200
O81         O  0.78924267  0.41610632  0.18846473    -0.77400
O82         O  0.79428768  0.50985518  0.18292880    -1.13500
O83         O  0.73176198  0.46378232  0.16696184    -0.72700
C84         C  0.73428330  0.47656398  0.13482156     0.98000
C85         C  0.82111954  0.10966280  0.18801696     0.94400
Al86       Al  0.84183045  0.50922408  0.18788769     1.55600
O87         O  0.72535447  0.05145817  0.18113138    -0.77300
C88         C  0.82146505  0.40612898  0.19756137     0.98600
C89         C  0.83760467  0.03020683  0.11769795     0.93400
O90         O  0.81327050  0.06034071  0.12464960    -0.82700
O91         O  0.56353290  0.51377162  0.24989719    -0.82100
C92         C  0.68854319  0.50045709  0.33789606     0.97200
O93         O  0.65688399  0.49316543  0.34974690    -0.71200
O94         O  0.61338082  0.05950094  0.33182005    -0.74800
Al95       Al  0.60773709  0.49506227  0.32416354     1.49000
C96         C  0.60718963  0.09419870  0.31153364     0.92500
O97         O  0.66187005  0.05480320  0.23693738    -0.81000
O98         O  0.63399154  0.41713892  0.24601207    -0.74600
Al99       Al  0.61290177  0.03068326  0.24740545     1.90100
O100        O  0.68352819  0.48568570  0.23766617    -0.73700
O101        O  0.65338834  0.41340730  0.31345080    -0.73500
O102        O  0.69431334  0.49139264  0.30634817    -0.79200
O103        O  0.59752886  0.42704515  0.32212410    -0.77400
O104        O  0.62743802  0.49554871  0.28243098    -1.13500
O105        O  0.55882254  0.50079532  0.30609245    -0.72700
C106        C  0.54444685  0.50533346  0.27551346     0.98000
C107        C  0.68628235  0.02574967  0.22870471     0.94400
Al108      Al  0.66337725  0.45526442  0.27649927     1.55600
O109        O  0.60547086  0.08822219  0.27803804    -0.77300
C110        C  0.62205800  0.39767309  0.31761337     0.98600
C111        C  0.62203418  0.43281622  0.21650648     0.93400
O112        O  0.61584887  0.47805105  0.21197132    -0.82700
O113        O  0.87473662  0.28808538  0.26028562    -0.82100
C114        C  0.75840703  0.25338541  0.16663735     0.97200
O115        O  0.78715112  0.27792986  0.16699353    -0.71200
O116        O  0.84251346  0.32687079  0.19506944    -0.74800
Al117      Al  0.83244342  0.25995713  0.19206198     1.49000
C118        C  0.82798787  0.35786474  0.21306322     0.92500
O119        O  0.77567317  0.29197406  0.28823867    -0.81000
O120        O  0.78629689  0.19207123  0.28481065    -0.74600
Al121      Al  0.82422294  0.28805746  0.26990021     1.90100
O122        O  0.74365297  0.25570450  0.24690265    -0.73700
O123        O  0.81066324  0.16321609  0.22855209    -0.73500
O124        O  0.75712846  0.21766644  0.18757984    -0.79200
O125        O  0.82858052  0.19288029  0.17942178    -0.77400
O126        O  0.81126020  0.25345422  0.23305248    -1.13500
O127        O  0.87766479  0.24435835  0.21332722    -0.72700
C128        C  0.89265353  0.26246207  0.24033845     0.98000
C129        C  0.74577503  0.27486911  0.27631936     0.94400
Al130      Al  0.77721595  0.21054037  0.23636767     1.55600
O131        O  0.81525561  0.34649574  0.24248275    -0.77300
C132        C  0.82474376  0.15762872  0.20004964     0.98600
C133        C  0.81266552  0.19821622  0.30644981     0.93400
O134        O  0.83461903  0.23239428  0.30131697    -0.82700
C135        C  0.16841682  0.05145625  0.11265181     0.29700
C136        C  0.11825662  0.99801933  0.14392015     0.29700
C137        C  0.14644948  0.07768091  0.14010244    -0.06500
C138        C  0.13877693  0.03209654  0.08792653    -0.07300
C139        C  0.18292808  0.00462343  0.12996577    -0.07200
C140        C  0.12062389  0.05099125  0.15612496    -0.06500
C141        C  0.11307645  0.00384164  0.10356571    -0.07300
C142        C  0.15856428  0.98064958  0.14968322    -0.06400
C143        C  0.10498407  0.08191272  0.17952142    -0.32600
N144        N  0.11945694  0.12674610  0.17716323     0.13900
C145        C  0.14537248  0.12384670  0.15329593    -0.32600
H146        H  0.16413841  0.15224757  0.14786435     0.15900
C147        C  0.09015669  0.98697117  0.07665281    -0.31500
N148        N  0.10159681  0.00495107  0.04583504     0.12700
C149        C  0.13131920  0.03223639  0.05258597    -0.31500
C150        C  0.17807532  0.46222314  0.17659382    -0.31800
N151        N  0.21382549  0.46573427  0.16936731     0.13200
H152        H  0.16904685  0.44911624  0.20132331     0.15800
C153        C  0.21723897  0.98654145  0.13850197    -0.31800
H154        H  0.24217071  0.99767539  0.12721830     0.15800
H155        H  0.14680566  0.04988727  0.03292073     0.15800
H156        H  0.08604307  0.07199636  0.19887151     0.15900
H157        H  0.06544951  0.46684842  0.07839235     0.15800
O158        O  0.26364995  0.23178544  0.12571292    -0.82100
C159        C  0.32664906  0.20811797  0.26317194     0.97200
O160        O  0.29869762  0.18537888  0.25205690    -0.71200
O161        O  0.24736457  0.24201109  0.22774250    -0.74800
Al162      Al  0.26999769  0.19012364  0.20753129     1.49000
C163        C  0.22222411  0.26183912  0.21011949     0.92500
O164        O  0.29044847  0.31728587  0.18763601    -0.81000
O165        O  0.35286882  0.21899827  0.14878863    -0.74600
Al166      Al  0.27754702  0.27395412  0.15807524     1.90100
O167        O  0.34897268  0.30113440  0.19393806    -0.73700
O168        O  0.34756834  0.15622381  0.20710753    -0.73500
O169        O  0.34075084  0.23861071  0.24398083    -0.79200
O170        O  0.29225330  0.13608333  0.19097051    -0.77400
O171        O  0.29795119  0.22966477  0.18708844    -1.13500
O172        O  0.23748484  0.18543055  0.16442161    -0.72700
C173        C  0.24445341  0.19719419  0.13269175     0.98000
C174        C  0.32181645  0.32934604  0.19689293     0.94400
Al175      Al  0.34487318  0.22874173  0.19688924     1.55600
O176        O  0.22813503  0.27446913  0.17874511    -0.77300
C177        C  0.32238277  0.12432208  0.20498018     0.98600
C178        C  0.34287668  0.24917691  0.12530141     0.93400
O179        O  0.32044353  0.28183717  0.13157970    -0.82700
C180        C  0.26575680  0.29675618  0.41306712     0.29700
C181        C  0.31668428  0.24453159  0.38290789     0.29700
C182        C  0.28772909  0.32365269  0.38543838    -0.06500
C183        C  0.29540987  0.27758411  0.43819337    -0.07300
C184        C  0.25192163  0.24982193  0.39646804    -0.07200
C185        C  0.31389248  0.29753441  0.36996063    -0.06500
C186        C  0.32153602  0.25000595  0.42313673    -0.07300
C187        C  0.27665770  0.22673506  0.37715697    -0.07200
C188        C  0.32978717  0.32898461  0.34651650    -0.32600
N189        N  0.31511012  0.37348374  0.34830171     0.13900
C190        C  0.28891251  0.37008295  0.37191180    -0.32600
H191        H  0.27017596  0.39837282  0.37706071     0.15900
C192        C  0.34496281  0.23422387  0.45028918    -0.31500
N193        N  0.33336802  0.25215031  0.48057614     0.12700
C194        C  0.30307740  0.27824861  0.47343703    -0.31500
C195        C  0.25518115  0.20650727  0.34990204    -0.31800
N196        N  0.21940837  0.20948056  0.35681874     0.13200
H197        H  0.26450987  0.19494843  0.32517462     0.15800
C198        C  0.21786781  0.23171064  0.38757895    -0.31800
H199        H  0.19270847  0.24202422  0.39853401     0.15800
H200        H  0.28753306  0.29550671  0.49280609     0.15800
H201        H  0.34912889  0.31988310  0.32759928     0.15900
H202        H  0.36840228  0.21159555  0.44829097     0.15800
O203        O  0.17075162  0.47668917  0.40059109    -0.82100
C204        C  0.10801343  0.45650920  0.26343446     0.97200
O205        O  0.13580445  0.43295879  0.27446841    -0.71200
O206        O  0.18775960  0.48725790  0.29847050    -0.74800
Al207      Al  0.16426061  0.43568233  0.31920049     1.49000
C208        C  0.21347978  0.00891943  0.31584078     0.92500
O209        O  0.14551082  0.06386864  0.33650900    -0.81000
O210        O  0.08225775  0.46587310  0.37881771    -0.74600
Al211      Al  0.15849315  0.02097148  0.36757915     1.90100
O212        O  0.08678233  0.04828438  0.33216070    -0.73700
O213        O  0.08631016  0.40299413  0.31973707    -0.73500
O214        O  0.09471045  0.98656083  0.28314877    -0.79200
O215        O  0.14126488  0.38184914  0.33605806    -0.77400
O216        O  0.13691386  0.47539897  0.33908077    -1.13500
O217        O  0.19581232  0.42931702  0.36286149    -0.72700
C218        C  0.18802451  0.44036857  0.39428790     0.98000
C219        C  0.11392632  0.07627025  0.32791392     0.94400
Al220      Al  0.09003315  0.47566830  0.32974058     1.55600
O221        O  0.20786061  0.02119587  0.34701357    -0.77300
C222        C  0.11146793  0.37089967  0.32137335     0.98600
C223        C  0.09324390  0.99719977  0.40148250     0.93400
O224        O  0.11589594  0.02932787  0.39385640    -0.82700
O225        O  0.06445505  0.24008542  0.24242429    -0.82100
C226        C  0.18864331  0.20534065  0.33192393     0.97200
O227        O  0.15615023  0.20744359  0.34217815    -0.71200
O228        O  0.11971579  0.28707935  0.32391055    -0.74800
Al229      Al  0.10886907  0.22200878  0.31697938     1.49000
C230        C  0.11017426  0.32197252  0.30442874     0.92500
O231        O  0.16229476  0.28073957  0.23117484    -0.81000
O232        O  0.12811708  0.14402501  0.23558747    -0.74600
Al233      Al  0.11308232  0.25817268  0.23940710     1.90100
O234        O  0.18274290  0.20771924  0.23098238    -0.73700
O235        O  0.14454328  0.13259417  0.29914939    -0.73500
O236        O  0.19413661  0.20135896  0.29972503    -0.79200
O237        O  0.09252898  0.15621836  0.31621545    -0.77400
O238        O  0.12736106  0.21970124  0.27471715    -1.13500
O239        O  0.06095915  0.23772084  0.29973346    -0.72700
C240        C  0.04608931  0.23960036  0.26924083     0.98000
C241        C  0.18633222  0.25104072  0.22332793     0.94400
Al242      Al  0.15966926  0.17537788  0.26701796     1.55600
O243        O  0.10550520  0.31547215  0.27108673    -0.77300
C244        C  0.11484309  0.12352466  0.31218955     0.98600
C245        C  0.12013913  0.16067967  0.20570708     0.93400
O246        O  0.11656763  0.20633913  0.20171523    -0.82700
O247        O  0.37006627  0.48946436  0.28326483    -0.82100
C248        C  0.24509380  0.45917507  0.19376915     0.97200
O249        O  0.27750872  0.46258069  0.18329071    -0.71200
O250        O  0.31562249  0.04041996  0.20171407    -0.74800
Al251      Al  0.32522063  0.47540227  0.20851013     1.49000
C252        C  0.32433041  0.07466827  0.22129714     0.92500
O253        O  0.27277083  0.03016775  0.29408894    -0.81000
O254        O  0.30745702  0.39249964  0.28965598    -0.74600
Al255      Al  0.32212855  0.00907654  0.28619585     1.90100
O256        O  0.25220526  0.45448822  0.29435837    -0.73700
O257        O  0.29068739  0.38371479  0.22588733    -0.73500
O258        O  0.24010571  0.45160640  0.22586529    -0.79200
O259        O  0.34192258  0.40968925  0.20806235    -0.77400
O260        O  0.30711691  0.47001670  0.25082478    -1.13500
O261        O  0.37348741  0.48977268  0.22601554    -0.72700
C262        C  0.38855977  0.48918623  0.25655033     0.98000
C263        C  0.24914084  0.99955144  0.30203975     0.94400
Al264      Al  0.27530946  0.42456192  0.25829076     1.55600
O265        O  0.32913046  0.06692938  0.25450832    -0.77300
C266        C  0.32034684  0.37603351  0.21256724     0.98600
C267        C  0.31491707  0.40809504  0.31961312     0.93400
O268        O  0.31816129  0.45344809  0.32365863    -0.82700
C269        C  0.19353064  0.40699144  0.42322476    -0.00500
C270        C  0.17818920  0.36349230  0.41538193    -0.12300
C271        C  0.20344369  0.33177183  0.40515469     0.01800
C272        C  0.23669552  0.32824047  0.42553582    -0.00600
C273        C  0.24659763  0.36696146  0.44728739    -0.12300
C274        C  0.22562183  0.40847068  0.44430985     0.01600
H275        H  0.15185291  0.36346464  0.40136950     0.14600
H276        H  0.27301312  0.36827761  0.46086210     0.14600
C277        C  0.23896912  0.45286560  0.45831658     0.36300
C278        C  0.20218631  0.32440641  0.36751528     0.36200
N279        N  0.24899016  0.48880620  0.46959734    -0.44100
N280        N  0.20214794  0.31893359  0.33757244    -0.44100
C281        C  0.34518239  0.21203881  0.36841591    -0.00500
C282        C  0.37201660  0.23443055  0.34974744    -0.12300
C283        C  0.37060281  0.22920988  0.31346321     0.01800
C284        C  0.34351779  0.19893314  0.29829905    -0.00600
C285        C  0.33013255  0.16243056  0.31943336    -0.12300
C286        C  0.33375040  0.16731047  0.35570900     0.01600
H287        H  0.38764312  0.26324620  0.36152847     0.14600
H288        H  0.31386170  0.13382472  0.30818571     0.14600
C289        C  0.31850061  0.13184676  0.37831176     0.36300
C290        C  0.39428008  0.25818849  0.29306854     0.36200
N291        N  0.30649135  0.10294615  0.39622911    -0.44100
N292        N  0.41346485  0.28134005  0.27692148    -0.44100
C293        C  0.35441142  0.24478566  0.08928759    -0.00500
C294        C  0.34603234  0.20253324  0.07147867    -0.12300
C295        C  0.34419699  0.20203865  0.03478071     0.01800
C296        C  0.35137992  0.24401651  0.01577558    -0.00600
C297        C  0.36414887  0.28429854  0.03374152    -0.12300
C298        C  0.36556789  0.28507039  0.07030325     0.01600
H299        H  0.33718699  0.17150656  0.08598858     0.14600
H300        H  0.36953873  0.31663605  0.01904221     0.14600
C301        C  0.37608300  0.32851565  0.08776582     0.36300
C302        C  0.33061415  0.16015379  0.01714146     0.36200
N303        N  0.38455753  0.36320593  0.10190595    -0.44100
N304        N  0.31563692  0.12865619  0.50296917    -0.44100
C305        C  0.19685954  0.08384656  0.09946771    -0.00500
C306        C  0.18516693  0.12396983  0.07902752    -0.12300
C307        C  0.20352697  0.16705643  0.08451568     0.01800
C308        C  0.23667971  0.16538390  0.10411905    -0.00600
C309        C  0.25394257  0.12225129  0.10979447    -0.12300
C310        C  0.23024017  0.08780350  0.11959419     0.01600
H311        H  0.15836650  0.12463428  0.06612746     0.14600
H312        H  0.28064038  0.12242800  0.12317638     0.14600
C313        C  0.23177209  0.07919123  0.15733061     0.36300
C314        C  0.18553549  0.21165051  0.07621653     0.36200
N315        N  0.23184484  0.07275872  0.18732079    -0.44100
N316        N  0.17104941  0.24748124  0.06982163    -0.44100
C317        C  0.09006176  0.96490601  0.15887181    -0.00500
C318        C  0.06337965  0.98638264  0.17768257    -0.12300
C319        C  0.06500181  0.97954032  0.21393466     0.01800
C320        C  0.09084262  0.44941284  0.22838561    -0.00600
C321        C  0.10405946  0.41463451  0.20652246    -0.12300
C322        C  0.09964790  0.42202168  0.17035639     0.01600
H323        H  0.04749858  0.01546186  0.16592731     0.14600
H324        H  0.12076489  0.38557001  0.21709602     0.14600
C325        C  0.11487673  0.38868205  0.14690456     0.36300
C326        C  0.04086237  0.00675625  0.23436181     0.36200
N327        N  0.12690445  0.36165060  0.12819126    -0.44100
N328        N  0.02121460  0.02833836  0.25054610    -0.44100
C329        C  0.08647061  0.99783107  0.01095223    -0.00500
C330        C  0.07458818  0.04021290  0.49073454    -0.12300
C331        C  0.07243151  0.03820673  0.45422528     0.01800
C332        C  0.08120105  0.99563342  0.43761484    -0.00600
C333        C  0.08456538  0.45495350  0.45781078    -0.12300
C334        C  0.08693384  0.45720931  0.49462015     0.01600
H335        H  0.07395735  0.07213404  0.00344426     0.14600
H336        H  0.08930404  0.42133473  0.44528763     0.14600
C337        C  0.10420895  0.41647016  0.01486799     0.36300
C338        C  0.06399712  0.08120358  0.43421417     0.36200
N339        N  0.11440555  0.38374938  0.03130477    -0.44100
N340        N  0.05732266  0.11547837  0.41796110    -0.44100
C341        C  0.93175545  0.25404958  0.24864458    -0.00500
C342        C  0.94922010  0.27950513  0.27606885    -0.12300
C343        C  0.98624319  0.27377655  0.28431508     0.01800
C344        C  0.00657708  0.24275579  0.26446350    -0.00600
C345        C  0.98925537  0.21641349  0.23776811    -0.12300
C346        C  0.95210990  0.22091621  0.23012742     0.01600
H347        H  0.93409429  0.30448160  0.29092979     0.14600
H348        H  0.00487835  0.19190395  0.22292873     0.14600
C349        C  0.93594586  0.19001831  0.20378687     0.36300
C350        C  0.00295868  0.30169243  0.31217224     0.36200
N351        N  0.92303814  0.16495248  0.18288988    -0.44100
N352        N  0.01642539  0.32383391  0.33455728    -0.44100
C353        C  0.50461809  0.50039998  0.26963342    -0.00500
C354        C  0.48398443  0.01914762  0.29632725    -0.12300
C355        C  0.44627668  0.01781069  0.29190230     0.01800
C356        C  0.42850439  0.49036780  0.26107847    -0.00600
C357        C  0.44802960  0.51278536  0.23504006    -0.12300
C358        C  0.48557335  0.51838514  0.23907876     0.01600
H359        H  0.49646148  0.03697130  0.31885259     0.14600
H360        H  0.43373444  0.52755950  0.21184589     0.14600
C361        C  0.50315539  0.54472334  0.21200007     0.36300
C362        C  0.42554790  0.04225251  0.31711872     0.36200
N363        N  0.51689990  0.56603483  0.19020086    -0.44100
N364        N  0.40878851  0.06198781  0.33709159    -0.44100
C365        C  0.66844445  0.39046997  0.07881019    -0.00500
C366        C  0.70478373  0.38643507  0.07080438    -0.12300
C367        C  0.72879771  0.41711187  0.08827140     0.01800
C368        C  0.71386118  0.45444607  0.10679890    -0.00600
C369        C  0.67851402  0.46966087  0.09778417    -0.12300
C370        C  0.65513474  0.43693265  0.08148211     0.01600
H371        H  0.71484442  0.35324669  0.06098994     0.14600
H372        H  0.66826415  0.50283824  0.10745768     0.14600
C373        C  0.61706033  0.44727642  0.07584496     0.36300
C374        C  0.76664416  0.40451917  0.09235243     0.36200
N375        N  0.58653732  0.45549173  0.07085825    -0.44100
N376        N  0.79648479  0.39245926  0.09646939    -0.44100
C377        C  0.59578977  0.19882727  0.22699591    -0.00500
C378        C  0.62403830  0.18271526  0.20784580    -0.12300
C379        C  0.63698715  0.21924334  0.18789191     0.01800
C380        C  0.61198680  0.24247911  0.16451712    -0.00600
C381        C  0.57569310  0.24398673  0.17476506    -0.12300
C382        C  0.56807682  0.22492006  0.20813236     0.01600
H383        H  0.64433694  0.15947319  0.22055843     0.14600
H384        H  0.55588618  0.26601540  0.16025686     0.14600
C385        C  0.53516701  0.23764036  0.22429731     0.36300
C386        C  0.66149595  0.25076393  0.20743049     0.36200
N387        N  0.50897504  0.24774893  0.23770905    -0.44100
N388        N  0.67830258  0.27943995  0.22226301    -0.44100
C389        C  0.60629395  0.27445776  0.43528113    -0.00500
C390        C  0.57540235  0.25668826  0.45135490    -0.12300
C391        C  0.57329647  0.25710161  0.48818937     0.01800
C392        C  0.59933384  0.26254704  0.01057632    -0.00600
C393        C  0.63585886  0.28184645  0.49327331    -0.12300
C394        C  0.63633483  0.28869742  0.45725738     0.01600
H395        H  0.55211594  0.24539908  0.43514951     0.14600
H396        H  0.65670620  0.27374072  0.01340882     0.14600
C397        C  0.66671298  0.31546850  0.44508712     0.36300
C398        C  0.53294113  0.25326373  0.00118678     0.36200
N399        N  0.69095283  0.33824038  0.43659611    -0.44100
N400        N  0.50429456  0.25124647  0.01195161    -0.44100
C401        C  0.75812217  0.13309994  0.43802605    -0.00500
C402        C  0.77135884  0.17968929  0.44144412    -0.12300
C403        C  0.74746778  0.21653926  0.43256096     0.01800
C404        C  0.71190013  0.20363245  0.42212872    -0.00600
C405        C  0.69751510  0.16099522  0.43460221    -0.12300
C406        C  0.72169044  0.12511058  0.44476689     0.01600
H407        H  0.80027258  0.18646760  0.44194078     0.14600
H408        H  0.66883747  0.15323975  0.43085633     0.14600
C409        C  0.70892008  0.08002450  0.45786559     0.36300
C410        C  0.76151287  0.26350140  0.42554974     0.36200
N411        N  0.69846952  0.04402391  0.46848629    -0.44100
N412        N  0.77282399  0.30111579  0.41992777    -0.44100
C413        C  0.84481656  0.00725233  0.36146025    -0.00500
C414        C  0.87200812  0.02644159  0.34145198    -0.12300
C415        C  0.87197250  0.01501203  0.30614735     0.01800
C416        C  0.84446193  0.48693325  0.29299549    -0.00600
C417        C  0.82946447  0.45422124  0.31631876    -0.12300
C418        C  0.83108505  0.46431901  0.35194967     0.01600
H419        H  0.88768045  0.05666558  0.35096936     0.14600
H420        H  0.81336242  0.42440782  0.30672675     0.14600
C421        C  0.81421138  0.43270961  0.37635093     0.36300
C422        C  0.89600467  0.04088929  0.28407876     0.36200
N423        N  0.80059738  0.40742852  0.39590436    -0.44100
N424        N  0.91520699  0.06160473  0.26634735    -0.44100
C425        C  0.86378685  0.03354926  0.01040281    -0.00500
C426        C  0.87073014  0.07393280  0.03108382    -0.12300
C427        C  0.86411681  0.07323567  0.06676423     0.01800
C428        C  0.85299795  0.03065547  0.08276558    -0.00600
C429        C  0.84569957  0.48923266  0.06188956    -0.12300
C430        C  0.85027817  0.49141401  0.02583627     0.01600
H431        H  0.87588807  0.10777310  0.01822596     0.14600
H432        H  0.83453166  0.45748416  0.07327532     0.14600
C433        C  0.83641093  0.45279981  0.00462649     0.36300
C434        C  0.86688354  0.11705552  0.08595182     0.36200
N435        N  0.83988503  0.41983186  0.49117884    -0.44100
N436        N  0.86901137  0.15205080  0.10147379    -0.44100
C437        C  0.78123802  0.10000224  0.91443771     0.29700
C438        C  0.82307006  0.04094362  0.87861655     0.29700
C439        C  0.80320695  0.12507205  0.88552696    -0.06500
C440        C  0.80974365  0.07246034  0.93563146    -0.07300
C441        C  0.75976411  0.06111515  0.89370692    -0.07200
C442        C  0.82466477  0.09493395  0.86690109    -0.06500
C443        C  0.83146715  0.04217762  0.91843585    -0.07300
C444        C  0.78121668  0.03119589  0.87504940    -0.07200
C445        C  0.83344214  0.12085371  0.83668115    -0.32600
N446        N  0.81987211  0.16603834  0.83730422     0.13900
C447        C  0.79972617  0.16758097  0.86602754    -0.32600
H448        H  0.78077284  0.19577314  0.87024591     0.15900
C449        C  0.85572140  0.02264993  0.94407533    -0.31500
N450        N  0.84848872  0.04207335  0.97550697     0.12700
C451        C  0.82029439  0.07202922  0.97015668    -0.31500
C452        C  0.75839355  0.50829725  0.85603742    -0.31800
N453        N  0.72344576  0.51930731  0.86206710     0.13200
H454        H  0.76578532  0.48446426  0.83573431     0.15800
C455        C  0.72366595  0.05285198  0.88214124    -0.31800
H456        H  0.70025932  0.07352262  0.88824694     0.15800
H457        H  0.80806255  0.09212224  0.99038953     0.15800
H458        H  0.84564714  0.10649079  0.81408611     0.15900
H459        H  0.87565101  0.49927739  0.94047975     0.15800
O460        O  0.68685505  0.25752067  0.88811734    -0.82100
C461        C  0.60865807  0.21677321  0.76223774     0.97200
O462        O  0.63552645  0.19294172  0.77589103    -0.71200
O463        O  0.69751245  0.23196712  0.79140508    -0.74800
Al464      Al  0.66639376  0.19583260  0.81837843     1.49000
C465        C  0.71711635  0.26688687  0.79969450     0.92500
O466        O  0.64963925  0.32722137  0.81544430    -0.81000
O467        O  0.59222615  0.24344321  0.87764432    -0.74600
Al468      Al  0.66749993  0.29177091  0.85219939     1.90100
O469        O  0.59352814  0.32149579  0.82862708    -0.73700
O470        O  0.58576459  0.17721884  0.82198796    -0.73500
O471        O  0.59474684  0.25075563  0.77844969    -0.79200
O472        O  0.63806486  0.15377054  0.84299747    -0.77400
O473        O  0.64326698  0.24436499  0.83282773    -1.13500
O474        O  0.69896380  0.19240135  0.85959529    -0.72700
C475        C  0.69950821  0.21690636  0.88737344     0.98000
C476        C  0.62080796  0.34727298  0.82078080     0.94400
Al477      Al  0.59459159  0.24817666  0.82764960     1.55600
O478        O  0.71145443  0.28949671  0.82690689    -0.77300
C479        C  0.60892595  0.14381273  0.82689775     0.98600
C480        C  0.60877344  0.27270156  0.89790888     0.93400
O481        O  0.62979497  0.30387312  0.88518834    -0.82700
C482        C  0.65915789  0.35522466  0.60429142     0.29700
C483        C  0.63058250  0.28205725  0.63956920     0.29700
C484        C  0.64541634  0.36922838  0.63971211    -0.06500
C485        C  0.62527533  0.33234268  0.58695202    -0.07300
C486        C  0.68622005  0.31324192  0.61459460    -0.07200
C487        C  0.63097958  0.33200589  0.65829556    -0.06500
C488        C  0.61141727  0.29232289  0.60339614    -0.07300
C489        C  0.67042195  0.27376376  0.62939855    -0.07200
C490        C  0.62052868  0.35173948  0.68979510    -0.32600
N491        N  0.62724734  0.39977732  0.68973434     0.13900
C492        C  0.64284510  0.41020332  0.65937340    -0.32600
H493        H  0.65315103  0.44500646  0.65349825     0.15900
C494        C  0.59921630  0.26354999  0.57542349    -0.31500
N495        N  0.60066076  0.28863942  0.54456956     0.12700
C496        C  0.61493813  0.33156803  0.55238618    -0.31500
C497        C  0.69835831  0.24390707  0.64249569    -0.31800
N498        N  0.73002745  0.26792012  0.64398903     0.13200
H499        H  0.69535965  0.20933394  0.65479700     0.15800
C500        C  0.72271683  0.31075380  0.62777209    -0.31800
H501        H  0.74131839  0.34016324  0.62939532     0.15800
H502        H  0.62432261  0.35664149  0.53301670     0.15800
H503        H  0.60958618  0.33223133  0.71146617     0.15900
H504        H  0.59478693  0.22552214  0.57712654     0.15800
O505        O  0.75631414  0.51383274  0.62824727    -0.82100
C506        C  0.83195886  0.49185866  0.75805566     0.97200
O507        O  0.80356514  0.46860005  0.74937562    -0.71200
O508        O  0.75019420  0.52368535  0.73079325    -0.74800
Al509      Al  0.77087757  0.47223786  0.70830497     1.49000
C510        C  0.72271484  0.04112636  0.71176982     0.92500
O511        O  0.79033996  0.10109868  0.68425000    -0.81000
O512        O  0.84672129  0.50180126  0.64029768    -0.74600
Al513      Al  0.77470310  0.05558042  0.65559815     1.90100
O514        O  0.84860137  0.08233613  0.68492498    -0.73700
O515        O  0.84785105  0.44030860  0.69770210    -0.73500
O516        O  0.84370719  0.01979837  0.73650721    -0.79200
O517        O  0.79111595  0.41822705  0.69003488    -0.77400
O518        O  0.79651467  0.51214529  0.68487140    -1.13500
O519        O  0.73410668  0.46684053  0.66901938    -0.72700
C520        C  0.73655042  0.48068735  0.63707576     0.98000
C521        C  0.82293265  0.11230212  0.68842892     0.94400
Al522      Al  0.84403590  0.51110605  0.68892460     1.55600
O523        O  0.72685985  0.05563647  0.68037074    -0.77300
C524        C  0.82336106  0.40801853  0.69882740     0.98600
C525        C  0.83942801  0.03332056  0.61796912     0.93400
O526        O  0.81515565  0.06363411  0.62464702    -0.82700
O527        O  0.56730372  0.51090382  0.75201831    -0.82100
C528        C  0.69250490  0.50222387  0.84063839     0.97200
O529        O  0.66083386  0.49566762  0.85269723    -0.71200
O530        O  0.61294966  0.06149149  0.82989331    -0.74800
Al531      Al  0.61152691  0.49690439  0.82689659     1.49000
C532        C  0.60725531  0.09625663  0.80959202     0.92500
O533        O  0.66295055  0.05826744  0.73562378    -0.81000
O534        O  0.63838093  0.41681197  0.74890720    -0.74600
Al535      Al  0.61419802  0.03336940  0.74576701     1.90100
O536        O  0.68749719  0.48662149  0.74112603    -0.73700
O537        O  0.65677617  0.41446198  0.81682950    -0.73500
O538        O  0.69795782  0.49216243  0.80926535    -0.79200
O539        O  0.60114781  0.42901542  0.82608080    -0.77400
O540        O  0.63110976  0.49594908  0.78509286    -1.13500
O541        O  0.56249560  0.50203973  0.80856498    -0.72700
C542        C  0.54819636  0.50361042  0.77776297     0.98000
C543        C  0.68758604  0.02962256  0.72739158     0.94400
Al544      Al  0.66721048  0.45575505  0.77965182     1.55600
O545        O  0.60631946  0.09057794  0.77614697    -0.77300
C546        C  0.62533488  0.39928462  0.82136165     0.98600
C547        C  0.62719919  0.43229939  0.71906598     0.93400
O548        O  0.62052132  0.47730319  0.71448161    -0.82700
O549        O  0.87698818  0.29074461  0.76134896    -0.82100
C550        C  0.76121290  0.25529737  0.66762587     0.97200
O551        O  0.78985514  0.27999629  0.66834334    -0.71200
O552        O  0.84488744  0.32893467  0.69681968    -0.74800
Al553      Al  0.83483076  0.26203724  0.69352514     1.49000
C554        C  0.82989738  0.35978824  0.71458137     0.92500
O555        O  0.77793022  0.29280712  0.79023298    -0.81000
O556        O  0.78879203  0.19352989  0.78604457    -0.74600
Al557      Al  0.82651394  0.28963787  0.77136130     1.90100
O558        O  0.74615208  0.25781619  0.74825629    -0.73700
O559        O  0.81279485  0.16505961  0.72954700    -0.73500
O560        O  0.75948210  0.21991826  0.68882376    -0.79200
O561        O  0.83093722  0.19526738  0.68064952    -0.77400
O562        O  0.81358910  0.25528182  0.73441557    -1.13500
O563        O  0.87977654  0.24629259  0.71479292    -0.72700
C564        C  0.89500313  0.26569423  0.74110816     0.98000
C565        C  0.74797392  0.27632102  0.77788238     0.94400
Al566      Al  0.77953772  0.21245856  0.73760945     1.55600
O567        O  0.81699379  0.34828957  0.74397370    -0.77300
C568        C  0.82687173  0.15982668  0.70100229     0.98600
C569        C  0.81563441  0.19888225  0.80730136     0.93400
O570        O  0.83748793  0.23331178  0.80229961    -0.82700
C571        C  0.16769609  0.05311650  0.61263533     0.29700
C572        C  0.11775117  0.99936539  0.64387801     0.29700
C573        C  0.14608530  0.07891904  0.64050117    -0.06500
C574        C  0.13774605  0.03445630  0.58798205    -0.07300
C575        C  0.18227496  0.00590997  0.62939279    -0.07200
C576        C  0.12041792  0.05208253  0.65662216    -0.06500
C577        C  0.11217106  0.00600138  0.60362088    -0.07300
C578        C  0.15803401  0.98168541  0.64909832    -0.06400
C579        C  0.10518918  0.08275959  0.68046485    -0.32600
N580        N  0.11972299  0.12758393  0.67814936     0.13900
C581        C  0.14523329  0.12491861  0.65390854    -0.32600
H582        H  0.16392174  0.15336596  0.64835651     0.15900
C583        C  0.08902161  0.98954324  0.57677604    -0.31500
N584        N  0.10015242  0.00802838  0.54600352     0.12700
C585        C  0.12992081  0.03523670  0.55268667    -0.31500
C586        C  0.18004673  0.46108097  0.67800262    -0.31800
N587        N  0.21591426  0.46381455  0.67075871     0.13200
H588        H  0.17088201  0.44902286  0.70295562     0.15800
C589        C  0.21667384  0.98785035  0.63773146    -0.31800
H590        H  0.24155389  0.99926249  0.62648303     0.15800
H591        H  0.14532435  0.05295859  0.53299182     0.15800
H592        H  0.08647181  0.07267053  0.69998302     0.15900
H593        H  0.06598336  0.46789829  0.57928814     0.15800
O594        O  0.26427540  0.23265657  0.62590850    -0.82100
C595        C  0.32756467  0.20748428  0.76307604     0.97200
O596        O  0.29926289  0.18522492  0.75232934    -0.71200
O597        O  0.24875815  0.24314608  0.72794650    -0.74800
Al598      Al  0.27047353  0.19051471  0.70785618     1.49000
C599        C  0.22351018  0.26268500  0.71034983     0.92500
O600        O  0.29177409  0.31741596  0.68833181    -0.81000
O601        O  0.35308232  0.21864569  0.64822150    -0.74600
Al602      Al  0.27853622  0.27449078  0.65840363     1.90100
O603        O  0.35016542  0.30011346  0.69424745    -0.73700
O604        O  0.34769044  0.15515390  0.70634441    -0.73500
O605        O  0.34188657  0.23727166  0.74354544    -0.79200
O606        O  0.29184824  0.13557588  0.69162851    -0.77400
O607        O  0.29868506  0.22949120  0.68712091    -1.13500
O608        O  0.23789441  0.18648041  0.66472331    -0.72700
C609        C  0.24483814  0.19827475  0.63296809     0.98000
C610        C  0.32329075  0.32863090  0.69777913     0.94400
Al611      Al  0.34554181  0.22778501  0.69654024     1.55600
O612        O  0.22924276  0.27526592  0.67896505    -0.77300
C613        C  0.32228704  0.12349836  0.70483793     0.98600
C614        C  0.34336538  0.24957692  0.62514964     0.93400
O615        O  0.32140287  0.28249729  0.63197487    -0.82700
C616        C  0.26860256  0.29749020  0.91390528     0.29700
C617        C  0.31938322  0.24594084  0.88310354     0.29700
C618        C  0.29076508  0.32505262  0.88661599    -0.06500
C619        C  0.29811500  0.27739748  0.93879894    -0.07300
C620        C  0.25457006  0.25121190  0.89659656    -0.07200
C621        C  0.31699144  0.29926363  0.87098388    -0.06500
C622        C  0.32419200  0.25017354  0.92343113    -0.07300
C623        C  0.27921059  0.22879491  0.87687446    -0.07200
C624        C  0.33306059  0.33110913  0.84796026    -0.32600
N625        N  0.31831004  0.37555479  0.84992901     0.13900
C626        C  0.29193487  0.37168033  0.87333948    -0.32600
H627        H  0.27298379  0.39974605  0.87836030     0.15900
C628        C  0.34759296  0.23372842  0.95044647    -0.31500
N629        N  0.33593772  0.25089841  0.98096517     0.12700
C630        C  0.30568714  0.27716664  0.97405847    -0.31500
C631        C  0.25769445  0.20901170  0.84947162    -0.31800
N632        N  0.22199026  0.21133659  0.85670808     0.13200
H633        H  0.26690846  0.19800302  0.82456554     0.15800
C634        C  0.22055772  0.23293099  0.88775742    -0.31800
H635        H  0.19546207  0.24273632  0.89907283     0.15800
H636        H  0.29017910  0.29418462  0.99357152     0.15800
H637        H  0.35239701  0.32221752  0.82897730     0.15900
H638        H  0.37110864  0.21131846  0.94817652     0.15800
O639        O  0.17463517  0.47835260  0.90025830    -0.82100
C640        C  0.11075317  0.45850998  0.76345353     0.97200
O641        O  0.13888322  0.43533724  0.77408674    -0.71200
O642        O  0.19047869  0.49071927  0.79809901    -0.74800
Al643      Al  0.16777997  0.43818652  0.81864287     1.49000
C644        C  0.21482477  0.00805286  0.81497770     0.92500
O645        O  0.14729507  0.06312621  0.83609692    -0.81000
O646        O  0.08561345  0.46586799  0.87858499    -0.74600
Al647      Al  0.16027893  0.01973599  0.86694889     1.90100
O648        O  0.08853331  0.04805825  0.83218618    -0.73700
O649        O  0.09011179  0.40411284  0.81979988    -0.73500
O650        O  0.09583803  0.98646229  0.78277451    -0.79200
O651        O  0.14550036  0.38348697  0.83522325    -0.77400
O652        O  0.14009974  0.47701153  0.83907853    -1.13500
O653        O  0.20004318  0.43190941  0.86210997    -0.72700
C654        C  0.19311637  0.44321335  0.89372947     0.98000
C655        C  0.11573863  0.07611407  0.82803505     0.94400
Al656      Al  0.09315427  0.47643203  0.82986951     1.55600
O657        O  0.20944734  0.01996118  0.84624880    -0.77300
C658        C  0.11536701  0.37225301  0.82127082     0.98600
C659        C  0.09527603  0.99565391  0.90120032     0.93400
O660        O  0.11789346  0.02784590  0.89356842    -0.82700
O661        O  0.06676335  0.24210697  0.74360447    -0.82100
C662        C  0.19105127  0.20670515  0.83207289     0.97200
O663        O  0.15865658  0.20853170  0.84262023    -0.71200
O664        O  0.12229135  0.28820273  0.82455162    -0.74800
Al665      Al  0.11118047  0.22303724  0.81779272     1.49000
C666        C  0.11340194  0.32316051  0.80485956     0.92500
O667        O  0.16402574  0.28132548  0.73160324    -0.81000
O668        O  0.12940769  0.14477004  0.73650686    -0.74600
Al669      Al  0.11509707  0.25923701  0.74017657     1.90100
O670        O  0.18413850  0.20821109  0.73102328    -0.73700
O671        O  0.14673165  0.13341124  0.80020120    -0.73500
O672        O  0.19627315  0.20243451  0.79982562    -0.79200
O673        O  0.09469671  0.15693687  0.81718685    -0.77400
O674        O  0.12935947  0.22064492  0.77542358    -1.13500
O675        O  0.06314103  0.23901170  0.80082962    -0.72700
C676        C  0.04832712  0.24173455  0.77032982     0.98000
C677        C  0.18780336  0.25158277  0.72351030     0.94400
Al678      Al  0.16145557  0.17615620  0.76755428     1.55600
O679        O  0.10844786  0.31653697  0.77161299    -0.77300
C680        C  0.11693000  0.12409828  0.81302717     0.98600
C681        C  0.12096509  0.16145951  0.70671006     0.93400
O682        O  0.11769980  0.20715107  0.70265966    -0.82700
O683        O  0.37244316  0.48999823  0.78376451    -0.82100
C684        C  0.24740212  0.45792129  0.69510348     0.97200
O685        O  0.27983659  0.46129516  0.68443588    -0.71200
O686        O  0.31563533  0.03956659  0.70087438    -0.74800
Al687      Al  0.32806935  0.47416370  0.70923613     1.49000
C688        C  0.32463248  0.07348962  0.72066697     0.92500
O689        O  0.27429412  0.02833247  0.79356009    -0.81000
O690        O  0.31051285  0.39381098  0.79126736    -0.74600
Al691      Al  0.32329729  0.00665904  0.78512067     1.90100
O692        O  0.25515128  0.45620626  0.79572668    -0.73700
O693        O  0.29314513  0.38292108  0.72792389    -0.73500
O694        O  0.24260032  0.45105261  0.72730394    -0.79200
O695        O  0.34426190  0.40829531  0.70942278    -0.77400
O696        O  0.30988983  0.47010720  0.75153122    -1.13500
O697        O  0.37686530  0.48840911  0.72680082    -0.72700
C698        C  0.39156897  0.48944486  0.75756685     0.98000
C699        C  0.25031539  0.99808997  0.80121085     0.94400
Al700      Al  0.27806111  0.42494399  0.75985499     1.55600
O701        O  0.33018540  0.06508541  0.75376128    -0.77300
C702        C  0.32248112  0.37494428  0.71407552     0.98600
C703        C  0.31783743  0.40992607  0.82105717     0.93400
O704        O  0.32077590  0.45542445  0.82466520    -0.82700
C705        C  0.20006564  0.41053950  0.92279822    -0.00500
C706        C  0.18275543  0.36763642  0.91716714    -0.12300
C707        C  0.20636734  0.33347710  0.90743241     0.01800
C708        C  0.24003863  0.32907716  0.92712682    -0.00600
C709        C  0.25163312  0.36824067  0.94771702    -0.12300
C710        C  0.23295159  0.41132574  0.94277183     0.01600
H711        H  0.15605095  0.36846880  0.90379399     0.14600
H712        H  0.27839626  0.36856122  0.96067124     0.14600
C713        C  0.24993278  0.45556296  0.95297132     0.36300
C714        C  0.20413981  0.32566247  0.86986343     0.36200
N715        N  0.26349393  0.49108783  0.96122192    -0.44100
N716        N  0.20344482  0.31969006  0.83995395    -0.44100
C717        C  0.34747689  0.21329785  0.86822072    -0.00500
C718        C  0.37395918  0.23534319  0.84897045    -0.12300
C719        C  0.37176550  0.22983758  0.81274675     0.01800
C720        C  0.34464285  0.19900688  0.79821956    -0.00600
C721        C  0.33157111  0.16285847  0.81991333    -0.12300
C722        C  0.33563946  0.16840641  0.85615127     0.01600
H723        H  0.38983129  0.26422504  0.86034301     0.14600
H724        H  0.31490307  0.13430293  0.80913620     0.14600
C725        C  0.31891678  0.13476017  0.87922523     0.36300
C726        C  0.39433204  0.25968867  0.79178518     0.36200
N727        N  0.30527436  0.10807618  0.89777348    -0.44100
N728        N  0.41236491  0.28370534  0.77504274    -0.44100
C729        C  0.35414918  0.24552041  0.58888148    -0.00500
C730        C  0.34502995  0.20352005  0.57107206    -0.12300
C731        C  0.34195048  0.20341639  0.53440851     0.01800
C732        C  0.34877619  0.24547743  0.51539067    -0.00600
C733        C  0.36200291  0.28564561  0.53317272    -0.12300
C734        C  0.36469753  0.28602512  0.56973715     0.01600
H735        H  0.33649088  0.17241865  0.58568477     0.14600
H736        H  0.36708748  0.31804429  0.51842660     0.14600
C737        C  0.37613816  0.32921416  0.58706015     0.36300
C738        C  0.32740528  0.16190663  0.51696454     0.36200
N739        N  0.38547921  0.36377374  0.60091074    -0.44100
N740        N  0.31970118  0.12654753  0.00300221    -0.44100
C741        C  0.19616076  0.08559719  0.59969860    -0.00500
C742        C  0.18471198  0.12599071  0.57944239    -0.12300
C743        C  0.20348048  0.16878038  0.58495121     0.01800
C744        C  0.23668294  0.16655933  0.60446642    -0.00600
C745        C  0.25348284  0.12315058  0.61031196    -0.12300
C746        C  0.22940983  0.08916387  0.62004100     0.01600
H747        H  0.15790127  0.12705731  0.56657930     0.14600
H748        H  0.28013090  0.12287181  0.62379802     0.14600
C749        C  0.23060486  0.08036100  0.65777639     0.36300
C750        C  0.18585498  0.21367807  0.57682337     0.36200
N751        N  0.23030188  0.07374393  0.68773036    -0.44100
N752        N  0.17168290  0.24977104  0.57061032    -0.44100
C753        C  0.08956547  0.96610617  0.65865534    -0.00500
C754        C  0.06309326  0.98734688  0.67786274    -0.12300
C755        C  0.06498710  0.97984005  0.71404413     0.01800
C756        C  0.09298143  0.45125751  0.72869190    -0.00600
C757        C  0.10520553  0.41543822  0.70710844    -0.12300
C758        C  0.10034329  0.42202134  0.67090425     0.01600
H759        H  0.04724701  0.01673129  0.66651974     0.14600
H760        H  0.12159459  0.38616791  0.71782863     0.14600
C761        C  0.11491627  0.38806690  0.64754467     0.36300
C762        C  0.04112637  0.00677624  0.73495545     0.36200
N763        N  0.12639932  0.36079769  0.62868667    -0.44100
N764        N  0.02172740  0.02815280  0.75154664    -0.44100
C765        C  0.08522558  0.00027806  0.51115989    -0.00500
C766        C  0.07685488  0.03829161  0.99065388    -0.12300
C767        C  0.07503411  0.03670459  0.95414196     0.01800
C768        C  0.08313950  0.99403821  0.93734544    -0.00600
C769        C  0.08994656  0.45462043  0.95767600    -0.12300
C770        C  0.09168608  0.45732091  0.99437702     0.01600
H771        H  0.07107271  0.07403657  0.50337880     0.14600
H772        H  0.09795529  0.42197646  0.94544161     0.14600
C773        C  0.09429130  0.41433265  0.51498956     0.36300
C774        C  0.06759925  0.08012879  0.93431462     0.36200
N775        N  0.09993619  0.38000814  0.53151413    -0.44100
N776        N  0.06175519  0.11465390  0.91809042    -0.44100
C777        C  0.93434091  0.25881440  0.74845803    -0.00500
C778        C  0.95046801  0.27673396  0.77968775    -0.12300
C779        C  0.98744809  0.27073212  0.78802432     0.01800
C780        C  0.00885551  0.24573101  0.76502797    -0.00600
C781        C  0.99284296  0.22757760  0.73406501    -0.12300
C782        C  0.95618692  0.23409534  0.72537149     0.01600
H783        H  0.93429682  0.29603452  0.79757856     0.14600
H784        H  0.00928290  0.20867837  0.71613076     0.14600
C785        C  0.94259613  0.21573332  0.69211987     0.36300
C786        C  0.00287569  0.29292390  0.81920097     0.36200
N787        N  0.93206696  0.20101611  0.66538749    -0.44100
N788        N  0.01515245  0.31097854  0.84409547    -0.44100
C789        C  0.50834149  0.49785804  0.77184337    -0.00500
C790        C  0.48707340  0.97606256  0.79421963    -0.12300
C791        C  0.44940566  0.97083733  0.79014176     0.01800
C792        C  0.43171004  0.49118752  0.76327967    -0.00600
C793        C  0.45330745  0.48895520  0.73425289    -0.12300
C794        C  0.49109403  0.49252627  0.73807793     0.01600
H795        H  0.50107635  0.96240748  0.81791872     0.14600
H796        H  0.44065141  0.48499831  0.70822901     0.14600
C797        C  0.51102114  0.49092540  0.70662171     0.36300
C798        C  0.43093642  0.94639163  0.81756647     0.36200
N799        N  0.52685685  0.48992871  0.68133691    -0.44100
N800        N  0.41599185  0.92686328  0.83944735    -0.44100
C801        C  0.67323168  0.39375403  0.58038141    -0.00500
C802        C  0.70973228  0.39055686  0.57273603    -0.12300
C803        C  0.73300508  0.42168924  0.59055824     0.01800
C804        C  0.71713004  0.45862879  0.60869184    -0.00600
C805        C  0.68176611  0.47314779  0.59923374    -0.12300
C806        C  0.65898723  0.43980641  0.58302055     0.01600
H807        H  0.72043123  0.35771145  0.56296980     0.14600
H808        H  0.67090307  0.50589145  0.60905257     0.14600
C809        C  0.62060505  0.44880784  0.57875907     0.36300
C810        C  0.77101084  0.41009793  0.59547098     0.36200
N811        N  0.58981142  0.45602584  0.57516939    -0.44100
N812        N  0.80108480  0.39940197  0.60028734    -0.44100
C813        C  0.59589814  0.20527713  0.72605232    -0.00500
C814        C  0.62284573  0.18510533  0.70700523    -0.12300
C815        C  0.63817595  0.21918372  0.68637231     0.01800
C816        C  0.61454652  0.24452613  0.66280923    -0.00600
C817        C  0.57836703  0.24964530  0.67282855    -0.12300
C818        C  0.56989052  0.23362196  0.70670700     0.01600
H819        H  0.64149704  0.15985903  0.71996335     0.14600
H820        H  0.55992247  0.27324590  0.65798290     0.14600
C821        C  0.53837818  0.25203637  0.72251824     0.36300
C822        C  0.66399987  0.24870386  0.70603436     0.36200
N823        N  0.51321170  0.26712651  0.73527401    -0.44100
N824        N  0.68181644  0.27625640  0.72094366    -0.44100
C825        C  0.60539618  0.26911889  0.93671405    -0.00500
C826        C  0.57216265  0.25662802  0.95100054    -0.12300
C827        C  0.56855097  0.25622091  0.98768182     0.01800
C828        C  0.60366478  0.27099377  0.50950982    -0.00600
C829        C  0.63310895  0.26750234  0.99594705    -0.12300
C830        C  0.63568666  0.27653353  0.96026961     0.01600
H831        H  0.54846106  0.25116058  0.93360840     0.14600
H832        H  0.65943101  0.29246428  0.50944550     0.14600
C833        C  0.66823468  0.30043236  0.95041674     0.36300
C834        C  0.53948734  0.24537173  0.50330285     0.36200
N835        N  0.69409531  0.32138150  0.94398470    -0.44100
N836        N  0.51219058  0.23577384  0.51512464    -0.44100
C837        C  0.76208292  0.13087598  0.93940501    -0.00500
C838        C  0.77446086  0.17781246  0.94228447    -0.12300
C839        C  0.75047978  0.21331834  0.93072956     0.01800
C840        C  0.71535997  0.19872232  0.91974424    -0.00600
C841        C  0.70121442  0.15625877  0.93278671    -0.12300
C842        C  0.72567196  0.12217526  0.94565951     0.01600
H843        H  0.80330437  0.18521690  0.94346310     0.14600
H844        H  0.67285093  0.14727172  0.92808819     0.14600
C845        C  0.71334204  0.07657499  0.95827498     0.36300
C846        C  0.76456833  0.25969900  0.92185683     0.36200
N847        N  0.70333718  0.03997447  0.96820631    -0.44100
N848        N  0.77620674  0.29659800  0.91459519    -0.44100
C849        C  0.84725609  0.00611895  0.86093234    -0.00500
C850        C  0.87464565  0.02503758  0.84106053    -0.12300
C851        C  0.87425041  0.01427708  0.80564394     0.01800
C852        C  0.84851437  0.48701385  0.79361945    -0.00600
C853        C  0.83325490  0.45496897  0.81725132    -0.12300
C854        C  0.83518350  0.46575834  0.85272795     0.01600
H855        H  0.89067884  0.05482560  0.85078972     0.14600
H856        H  0.81662342  0.42544956  0.80800253     0.14600
C857        C  0.81815258  0.43502826  0.87762696     0.36300
C858        C  0.89837978  0.04013428  0.78367099     0.36200
N859        N  0.80445999  0.41047107  0.89760714    -0.44100
N860        N  0.91765860  0.06089613  0.76604773    -0.44100
C861        C  0.86098403  0.03498982  0.51014154    -0.00500
C862        C  0.87069143  0.07485528  0.53039801    -0.12300
C863        C  0.86673056  0.07429403  0.56657284     0.01800
C864        C  0.85428420  0.03270097  0.58294778    -0.00600
C865        C  0.85047951  0.49355760  0.56363325    -0.12300
C866        C  0.85371023  0.49590449  0.52728823     0.01600
H867        H  0.87671441  0.10821052  0.51726616     0.14600
H868        H  0.84413471  0.45992043  0.57592103     0.14600
C869        C  0.84613534  0.45377594  0.50714199     0.36300
C870        C  0.87423849  0.11705379  0.58608129     0.36200
N871        N  0.82471836  0.42192726  0.98784314    -0.44100
N872        N  0.88063528  0.15122626  0.60172763    -0.44100
C873        C  0.77610257  0.60345450  0.41393708     0.29700
C874        C  0.81876043  0.54360998  0.37944439     0.29700
C875        C  0.79647252  0.62708970  0.38357380    -0.06500
C876        C  0.80595316  0.57884637  0.43553381    -0.07300
C877        C  0.75535809  0.56189937  0.39547791    -0.07200
C878        C  0.81826055  0.59666965  0.36575682    -0.06500
C879        C  0.82789922  0.54801119  0.41891295    -0.07300
C880        C  0.77732223  0.53153086  0.37749156    -0.07200
C881        C  0.82818994  0.62212646  0.33592645    -0.32600
N882        N  0.81483665  0.66729114  0.33605501     0.13900
C883        C  0.79409495  0.66978563  0.36433664    -0.32600
H884        H  0.77599868  0.69900495  0.36877208     0.15900
C885        C  0.85197282  0.52916493  0.44480337    -0.31500
N886        N  0.84461359  0.54944947  0.47584535     0.12700
C887        C  0.81647526  0.57950161  0.47005725    -0.31500
C888        C  0.75526197  0.00453132  0.35404182    -0.31800
N889        N  0.72021131  0.01527913  0.35963144     0.13200
H890        H  0.76300843  0.98101838  0.33369373     0.15800
C891        C  0.71952468  0.55298285  0.38342835    -0.31800
H892        H  0.69598221  0.57406502  0.38853144     0.15800
H893        H  0.80378281  0.59950269  0.49005801     0.15800
H894        H  0.84125425  0.60782070  0.31385894     0.15900
H895        H  0.87369583  0.99878116  0.44040147     0.15800
O896        O  0.68616244  0.76434466  0.38599356    -0.82100
C897        C  0.60926392  0.71264692  0.26223926     0.97200
O898        O  0.63587500  0.68923616  0.27705649    -0.71200
O899        O  0.69820046  0.72702311  0.29356188    -0.74800
Al900      Al  0.66502479  0.69387979  0.32063404     1.49000
C901        C  0.71530097  0.76520327  0.29807155     0.92500
O902        O  0.64461230  0.82469125  0.30968258    -0.81000
O903        O  0.59039113  0.74382747  0.37642008    -0.74600
Al904      Al  0.66457509  0.79378778  0.34826694     1.90100
O905        O  0.58968139  0.81934558  0.32565561    -0.73700
O906        O  0.58396691  0.67552023  0.32195061    -0.73500
O907        O  0.59384096  0.74634523  0.27755881    -0.79200
O908        O  0.63535761  0.65315044  0.34521105    -0.77400
O909        O  0.64136297  0.74361999  0.33193424    -1.13500
O910        O  0.69498513  0.69368077  0.36362224    -0.72700
C911        C  0.69641179  0.72245587  0.38914062     0.98000
C912        C  0.61628576  0.84508406  0.31629626     0.94400
Al913      Al  0.59247427  0.74618468  0.32637017     1.55600
O914        O  0.70767020  0.79214045  0.32235434    -0.77300
C915        C  0.60695044  0.64246105  0.32812174     0.98600
C916        C  0.60730484  0.77442044  0.39536841     0.93400
O917        O  0.62688698  0.80596197  0.38108886    -0.82700
C918        C  0.65624628  0.85505401  0.10272360     0.29700
C919        C  0.62923191  0.78113194  0.13834087     0.29700
C920        C  0.64187288  0.86888917  0.13789826    -0.06500
C921        C  0.62300979  0.83052878  0.08538320    -0.07300
C922        C  0.68433807  0.81425029  0.11347237    -0.07200
C923        C  0.62804398  0.83134469  0.15656074    -0.06500
C924        C  0.60995946  0.79007694  0.10206410    -0.07300
C925        C  0.66921481  0.77444682  0.12823479    -0.07200
C926        C  0.61662338  0.85105712  0.18768717    -0.32600
N927        N  0.62243877  0.89930373  0.18743337     0.13900
C928        C  0.63832183  0.90993479  0.15728016    -0.32600
H929        H  0.64838579  0.94492141  0.15144438     0.15900
C930        C  0.59876910  0.76049976  0.07423087    -0.31500
N931        N  0.59981419  0.78536770  0.04324844     0.12700
C932        C  0.61307931  0.82887663  0.05075138    -0.31500
C933        C  0.69744115  0.74463419  0.14054065    -0.31800
N934        N  0.72897179  0.76892214  0.14190685     0.13200
H935        H  0.69476848  0.70981362  0.15254731     0.15800
C936        C  0.72112403  0.81209679  0.12615681    -0.31800
H937        H  0.73957980  0.84176391  0.12753572     0.15800
H938        H  0.62215870  0.85390081  0.03119503     0.15800
H939        H  0.60592616  0.83134535  0.20939136     0.15900
H940        H  0.59525839  0.72231940  0.07615387     0.15800
O941        O  0.75758650  0.00862514  0.12516865    -0.82100
C942        C  0.82944517  0.98753694  0.25690654     0.97200
O943        O  0.80214566  0.96277972  0.24701731    -0.71200
O944        O  0.74765772  0.01621162  0.22792731    -0.74800
Al945      Al  0.77030100  0.96679249  0.20494037     1.49000
C946        C  0.72034754  0.54069910  0.21251959     0.92500
O947        O  0.78776213  0.59970592  0.18276176    -0.81000
O948        O  0.84831052  0.99933437  0.14022945    -0.74600
Al949      Al  0.77134354  0.55321200  0.15534673     1.90100
O950        O  0.84593394  0.58020650  0.18292245    -0.73700
O951        O  0.84821650  0.93808214  0.19718412    -0.73500
O952        O  0.84252787  0.51920258  0.23571680    -0.79200
O953        O  0.79231288  0.91492636  0.18557396    -0.77400
O954        O  0.79601137  0.00832927  0.18297465    -1.13500
O955        O  0.73429269  0.96158614  0.16507545    -0.72700
C956        C  0.73730387  0.97572201  0.13330909     0.98000
C957        C  0.82050661  0.61060896  0.18631033     0.94400
Al958      Al  0.84348665  0.00862491  0.18859154     1.55600
O959        O  0.72399233  0.55423370  0.18083270    -0.77300
C960        C  0.82411825  0.90527149  0.19621286     0.98600
C961        C  0.83522931  0.52993310  0.11706758     0.93400
O962        O  0.81100543  0.56025893  0.12365006    -0.82700
O963        O  0.56421725  0.01193598  0.25074475    -0.82100
C964        C  0.68951612  0.99813702  0.33812357     0.97200
O965        O  0.65794564  0.99158325  0.35032640    -0.71200
O966        O  0.61132770  0.55996126  0.33107009    -0.74800
Al967      Al  0.60873309  0.99465142  0.32510090     1.49000
C968        C  0.60587527  0.59485293  0.31080628     0.92500
O969        O  0.66072559  0.55697426  0.23653381    -0.81000
O970        O  0.63340558  0.91539586  0.24659869    -0.74600
Al971      Al  0.61212707  0.53216964  0.24675228     1.90100
O972        O  0.68387938  0.98295119  0.23821966    -0.73700
O973        O  0.65285123  0.91181959  0.31421902    -0.73500
O974        O  0.69493771  0.98834078  0.30665554    -0.79200
O975        O  0.59732747  0.92694216  0.32326395    -0.77400
O976        O  0.62811721  0.99418645  0.28315047    -1.13500
O977        O  0.55989320  0.00161776  0.30740136    -0.72700
C978        C  0.54548049  0.00424429  0.27676308     0.98000
C979        C  0.68548187  0.52858555  0.22838726     0.94400
Al980      Al  0.66340938  0.95295939  0.27708836     1.55600
O981        O  0.60470507  0.58928201  0.27732923    -0.77300
C982        C  0.62126596  0.89696242  0.31822693     0.98600
C983        C  0.62247713  0.93153147  0.21688707     0.93400
O984        O  0.61657209  0.97680866  0.21255560    -0.82700
O985        O  0.87493800  0.78822238  0.26029796    -0.82100
C986        C  0.76027892  0.75538030  0.16523245     0.97200
O987        O  0.78929597  0.77942608  0.16608389    -0.71200
O988        O  0.84524443  0.82629781  0.19540868    -0.74800
Al989      Al  0.83388817  0.76005371  0.19181349     1.49000
C990        C  0.82994663  0.85752545  0.21247110     0.92500
O991        O  0.77514402  0.79271359  0.28688076    -0.81000
O992        O  0.78623947  0.69192891  0.28317304    -0.74600
Al993      Al  0.82406089  0.78855522  0.26920804     1.90100
O994        O  0.74348068  0.75507159  0.24600586    -0.73700
O995        O  0.81128947  0.66384520  0.22725707    -0.73500
O996        O  0.75824259  0.71950609  0.18602775    -0.79200
O997        O  0.82916187  0.69355582  0.17826272    -0.77400
O998        O  0.81166561  0.75381159  0.23235041    -1.13500
O999        O  0.87845906  0.74314784  0.21405789    -0.72700
C1000       C  0.89329425  0.76261462  0.24064421     0.98000
C1001       C  0.74544076  0.77463325  0.27529762     0.94400
Al1002     Al  0.77757759  0.71087625  0.23502120     1.55600
O1003       O  0.81579728  0.84664653  0.24131779    -0.77300
C1004       C  0.82500367  0.65821086  0.19863060     0.98600
C1005       C  0.81171428  0.69897983  0.30559362     0.93400
O1006       O  0.83361145  0.73335489  0.30100849    -0.82700
C1007       C  0.16599036  0.55495223  0.11313246     0.29700
C1008       C  0.11584550  0.50115923  0.14389735     0.29700
C1009       C  0.14413684  0.58071741  0.14086342    -0.06500
C1010       C  0.13626928  0.53645985  0.08818422    -0.07300
C1011       C  0.18047551  0.50769933  0.12993497    -0.07200
C1012       C  0.11835212  0.55388579  0.15679960    -0.06500
C1013       C  0.11058883  0.50785282  0.10350476    -0.07300
C1014       C  0.15612503  0.48365866  0.14956058    -0.06400
C1015       C  0.10346819  0.58439947  0.18104060    -0.32600
N1016       N  0.11831007  0.62912928  0.17905411     0.13900
C1017       C  0.14363675  0.62651169  0.15466429    -0.32600
H1018       H  0.16259782  0.65474960  0.14944474     0.15900
C1019       C  0.08798271  0.49115211  0.07623883    -0.31500
N1020       N  0.09950167  0.50977511  0.04561071     0.12700
C1021       C  0.12900999  0.53724548  0.05278489    -0.31500
C1022       C  0.18053979  0.95895953  0.17652433    -0.31800
N1023       N  0.21625942  0.96254914  0.16918999     0.13200
H1024       H  0.17158166  0.94576262  0.20125961     0.15800
C1025       C  0.21483927  0.48975198  0.13867239    -0.31800
H1026       H  0.23980129  0.50097947  0.12749253     0.15800
H1027       H  0.14477669  0.55494066  0.03335664     0.15800
H1028       H  0.08487645  0.57413295  0.20063297     0.15900
H1029       H  0.06721770  0.96344088  0.07920330     0.15800
O1030       O  0.26288558  0.73355638  0.12830452    -0.82100
C1031       C  0.32781342  0.71005162  0.26474291     0.97200
O1032       O  0.29906097  0.68817852  0.25469130    -0.71200
O1033       O  0.24838469  0.74617191  0.23024313    -0.74800
Al1034     Al  0.26963497  0.69271618  0.21052442     1.49000
C1035       C  0.22304628  0.76531339  0.21248396     0.92500
O1036       O  0.29217863  0.81839630  0.18906491    -0.81000
O1037       O  0.35170692  0.71762385  0.14918494    -0.74600
Al1038     Al  0.27802496  0.77536024  0.15997933     1.90100
O1039       O  0.35044600  0.80040029  0.19458376    -0.73700
O1040       O  0.34646667  0.65565262  0.20811752    -0.73500
O1041       O  0.34247628  0.73859055  0.24453624    -0.79200
O1042       O  0.29010980  0.63701914  0.19477294    -0.77400
O1043       O  0.29802920  0.73059862  0.18895200    -1.13500
O1044       O  0.23655715  0.68818000  0.16766771    -0.72700
C1045       C  0.24305205  0.69985797  0.13575843     0.98000
C1046       C  0.32382861  0.82936122  0.19812464     0.94400
Al1047     Al  0.34503900  0.72805977  0.19760773     1.55600
O1048       O  0.22892148  0.77753955  0.18105667    -0.77300
C1049       C  0.32068922  0.62453061  0.20732325     0.98600
C1050       C  0.34221015  0.74846968  0.12598699     0.93400
O1051       O  0.32050892  0.78175157  0.13277207    -0.82700
C1052       C  0.26788440  0.79954221  0.41495243     0.29700
C1053       C  0.31900709  0.74864813  0.38414092     0.29700
C1054       C  0.28934743  0.82713774  0.38714910    -0.06500
C1055       C  0.29804282  0.78063354  0.43977219    -0.07300
C1056       C  0.25422537  0.75261141  0.39810210    -0.07200
C1057       C  0.31577798  0.80167229  0.37157565    -0.06500
C1058       C  0.32417878  0.75375783  0.42425644    -0.07300
C1059       C  0.27902022  0.73028727  0.37838742    -0.07200
C1060       C  0.33163194  0.83360975  0.34853646    -0.32600
N1061       N  0.31649199  0.87778523  0.35028967     0.13900
C1062       C  0.29008004  0.87369764  0.37365516    -0.32600
H1063       H  0.27095888  0.90157759  0.37864585     0.15900
C1064       C  0.34822708  0.73807272  0.45088240    -0.31500
N1065       N  0.33704847  0.75537580  0.48148230     0.12700
C1066       C  0.30639265  0.78106099  0.47498898    -0.31500
C1067       C  0.25746660  0.71044716  0.35092011    -0.31800
N1068       N  0.22165073  0.71270001  0.35803072     0.13200
H1069       H  0.26680559  0.69949902  0.32603509     0.15800
C1070       C  0.22022542  0.73422057  0.38912032    -0.31800
H1071       H  0.19509670  0.74387812  0.40042715     0.15800
H1072       H  0.29092181  0.79758088  0.49475063     0.15800
H1073       H  0.35120016  0.82507391  0.32974428     0.15900
H1074       H  0.37164784  0.71556721  0.44835715     0.15800
O1075       O  0.17220259  0.97885406  0.40122212    -0.82100
C1076       C  0.10899819  0.95678933  0.26421245     0.97200
O1077       O  0.13685502  0.93365715  0.27561257    -0.71200
O1078       O  0.18837124  0.98886053  0.29888229    -0.74800
Al1079     Al  0.16542170  0.93729645  0.32019217     1.49000
C1080       C  0.21290523  0.50672115  0.31580628     0.92500
O1081       O  0.14593521  0.56233247  0.33530990    -0.81000
O1082       O  0.08311470  0.96623735  0.37920765    -0.74600
Al1083     Al  0.15798959  0.51923184  0.36687757     1.90100
O1084       O  0.08698655  0.54856007  0.33159967    -0.73700
O1085       O  0.08767764  0.90389118  0.32098312    -0.73500
O1086       O  0.09418355  0.48631788  0.28262851    -0.79200
O1087       O  0.14274181  0.88357919  0.33776516    -0.77400
O1088       O  0.13775389  0.97679931  0.33985764    -1.13500
O1089       O  0.19761722  0.93185133  0.36357072    -0.72700
C1090       C  0.19050670  0.94343241  0.39503587     0.98000
C1091       C  0.11452774  0.57615357  0.32752123     0.94400
Al1092     Al  0.09075068  0.97611813  0.33043917     1.55600
O1093       O  0.20731070  0.51841224  0.34703353    -0.77300
C1094       C  0.11296718  0.87217773  0.32319673     0.98600
C1095       C  0.09260886  0.49711540  0.40089023     0.93400
O1096       O  0.11541945  0.52879470  0.39282522    -0.82700
O1097       O  0.06559048  0.74275541  0.24482535    -0.82100
C1098       C  0.19056139  0.70795542  0.33337173     0.97200
O1099       O  0.15808116  0.70930105  0.34390744    -0.71200
O1100       O  0.12107555  0.78854699  0.32602092    -0.74800
Al1101     Al  0.11025281  0.72356334  0.31900216     1.49000
C1102       C  0.11170813  0.82344598  0.30650208     0.92500
O1103       O  0.16303063  0.78300910  0.23330271    -0.81000
O1104       O  0.12899391  0.64596245  0.23745267    -0.74600
Al1105     Al  0.11400624  0.76034605  0.24158130     1.90100
O1106       O  0.18344688  0.71010320  0.23220829    -0.73700
O1107       O  0.14634507  0.63445830  0.30138215    -0.73500
O1108       O  0.19570271  0.70402065  0.30107843    -0.79200
O1109       O  0.09397015  0.65742310  0.31786074    -0.77400
O1110       O  0.12847412  0.72167041  0.27667092    -1.13500
O1111       O  0.06190371  0.73942864  0.30205917    -0.72700
C1112       C  0.04707645  0.74204276  0.27151885     0.98000
C1113       C  0.18712531  0.75364146  0.22523821     0.94400
Al1114     Al  0.16089290  0.67756214  0.26870193     1.55600
O1115       O  0.10686746  0.81717204  0.27322172    -0.77300
C1116       C  0.11625194  0.62471049  0.31352505     0.98600
C1117       C  0.12007768  0.66281410  0.20778809     0.93400
O1118       O  0.11682121  0.70854182  0.20391053    -0.82700
O1119       O  0.37087231  0.99215672  0.28352921    -0.82100
C1120       C  0.24742056  0.95700227  0.19376241     0.97200
O1121       O  0.27985249  0.96096743  0.18346376    -0.71200
O1122       O  0.31398366  0.54084994  0.20262975    -0.74800
Al1123     Al  0.32717505  0.97518599  0.20876360     1.49000
C1124       C  0.32294911  0.57441301  0.22273912     0.92500
O1125       O  0.27225686  0.52787940  0.29481887    -0.81000
O1126       O  0.30907939  0.89520112  0.29153206    -0.74600
Al1127     Al  0.32134694  0.50670148  0.28647338     1.90100
O1128       O  0.25296054  0.95667939  0.29415986    -0.73700
O1129       O  0.29382269  0.88333704  0.22841309    -0.73500
O1130       O  0.24222682  0.95017285  0.22586131    -0.79200
O1131       O  0.34433016  0.90960358  0.20910188    -0.77400
O1132       O  0.30860483  0.97098462  0.25109091    -1.13500
O1133       O  0.37525583  0.99067978  0.22640709    -0.72700
C1134       C  0.38980557  0.99231606  0.25710405     0.98000
C1135       C  0.24849749  0.49728066  0.30235158     0.94400
Al1136     Al  0.27719322  0.92536408  0.25926136     1.55600
O1137       O  0.32828200  0.56557088  0.25577513    -0.77300
C1138       C  0.32308255  0.87580307  0.21431471     0.98600
C1139       C  0.31598855  0.91177087  0.32121683     0.93400
O1140       O  0.31892021  0.95725106  0.32448468    -0.82700
C1141       C  0.19764263  0.91111655  0.42432786    -0.00500
C1142       C  0.18110879  0.86768541  0.41867519    -0.12300
C1143       C  0.20527846  0.83436842  0.40863314     0.01800
C1144       C  0.23907690  0.83078886  0.42816182    -0.00600
C1145       C  0.25023440  0.87029642  0.44860158    -0.12300
C1146       C  0.23066328  0.91277638  0.44402406     0.01600
H1147       H  0.15433069  0.86777278  0.40546703     0.14600
H1148       H  0.27711953  0.87140501  0.46125536     0.14600
C1149       C  0.24700895  0.95758476  0.45378876     0.36300
C1150       C  0.20308479  0.82675099  0.37102496     0.36200
N1151       N  0.25994016  0.99371127  0.46149744    -0.44100
N1152       N  0.20239114  0.82105673  0.34108075    -0.44100
C1153       C  0.34785762  0.71673961  0.36978630    -0.00500
C1154       C  0.37403712  0.73943506  0.35055759    -0.12300
C1155       C  0.37161187  0.73427821  0.31430256     0.01800
C1156       C  0.34502683  0.70250751  0.29989183    -0.00600
C1157       C  0.33269926  0.66591829  0.32165682    -0.12300
C1158       C  0.33688917  0.67155752  0.35784413     0.01600
H1159       H  0.38940016  0.76876552  0.36194261     0.14600
H1160       H  0.31673326  0.63665496  0.31096732     0.14600
C1161       C  0.32203939  0.63681021  0.38128480     0.36300
C1162       C  0.39286544  0.76592287  0.29336748     0.36200
N1163       N  0.31030525  0.60894900  0.40021662    -0.44100
N1164       N  0.40975161  0.79171322  0.27684295    -0.44100
C1165       C  0.35390437  0.74492052  0.08986110    -0.00500
C1166       C  0.34695862  0.70259817  0.07159124    -0.12300
C1167       C  0.34571160  0.70267496  0.03482601     0.01800
C1168       C  0.35142698  0.74545488  0.01622049    -0.00600
C1169       C  0.36277076  0.78601277  0.03467199    -0.12300
C1170       C  0.36421813  0.78599230  0.07125853     0.01600
H1171       H  0.33907134  0.67079434  0.08575108     0.14600
H1172       H  0.36733690  0.81889842  0.02033189     0.14600
C1173       C  0.37423230  0.82925993  0.08921979     0.36300
C1174       C  0.33474705  0.66007445  0.01658067     0.36200
N1175       N  0.38239825  0.86369295  0.10384826    -0.44100
N1176       N  0.31381998  0.63296411  0.50142662    -0.44100
C1177       C  0.19450549  0.58750950  0.10052180    -0.00500
C1178       C  0.18291229  0.62843781  0.08090171    -0.12300
C1179       C  0.20112973  0.67129544  0.08772854     0.01800
C1180       C  0.23429149  0.66858645  0.10726278    -0.00600
C1181       C  0.25149302  0.62530745  0.11203890    -0.12300
C1182       C  0.22763500  0.59082680  0.12113565     0.01600
H1183       H  0.15615813  0.62958940  0.06791136     0.14600
H1184       H  0.27814997  0.62484761  0.12553858     0.14600
C1185       C  0.22846090  0.58209453  0.15888509     0.36300
C1186       C  0.18295418  0.71619590  0.08105697     0.36200
N1187       N  0.22797063  0.57568942  0.18884710    -0.44100
N1188       N  0.16834308  0.75227508  0.07607979    -0.44100
C1189       C  0.08782174  0.46752426  0.15852851    -0.00500
C1190       C  0.06141193  0.48846187  0.17796086    -0.12300
C1191       C  0.06340705  0.48047831  0.21407912     0.01800
C1192       C  0.09237287  0.94900685  0.22902127    -0.00600
C1193       C  0.10595394  0.91363847  0.20784454    -0.12300
C1194       C  0.10178043  0.91984355  0.17156450     0.01600
H1195       H  0.04560541  0.51806135  0.16689872     0.14600
H1196       H  0.12250252  0.88480451  0.21901526     0.14600
C1197       C  0.11642124  0.88536939  0.14863288     0.36300
C1198       C  0.03985855  0.50750239  0.23526073     0.36200
N1199       N  0.12775782  0.85743592  0.13019629    -0.44100
N1200       N  0.02086370  0.52898131  0.25220607    -0.44100
C1201       C  0.08566015  0.50121481  0.01045575    -0.00500
C1202       C  0.07728382  0.54243438  0.49046568    -0.12300
C1203       C  0.07467511  0.54030887  0.45394012     0.01800
C1204       C  0.08071439  0.49679297  0.43725223    -0.00600
C1205       C  0.08751152  0.95412619  0.45802340    -0.12300
C1206       C  0.08952207  0.95622684  0.49476220     0.01600
H1207       H  0.07013576  0.57439405  0.00184444     0.14600
H1208       H  0.09444976  0.92128960  0.44543686     0.14600
C1209       C  0.09810048  0.91089462  0.01444470     0.36300
C1210       C  0.06889502  0.58401147  0.43397004     0.36200
N1211       N  0.10445868  0.87645009  0.03061347    -0.44100
N1212       N  0.06450862  0.61879164  0.41767111    -0.44100
C1213       C  0.93266845  0.75579066  0.24884447    -0.00500
C1214       C  0.94878320  0.77726794  0.27883857    -0.12300
C1215       C  0.98582750  0.77214306  0.28761645     0.01800
C1216       C  0.00747911  0.74509065  0.26609099    -0.00600
C1217       C  0.99152743  0.72336223  0.23644065    -0.12300
C1218       C  0.95467052  0.72818711  0.22763880     0.01600
H1219       H  0.93254543  0.79861093  0.29541974     0.14600
H1220       H  0.00813655  0.70256345  0.21978606     0.14600
C1221       C  0.94089905  0.70437454  0.19648646     0.36300
C1222       C  0.00106342  0.79685648  0.31778786     0.36200
N1223       N  0.93020859  0.68509263  0.17150401    -0.44100
N1224       N  0.01314734  0.81672706  0.34197412    -0.44100
C1225       C  0.50582823  0.99955640  0.27142735    -0.00500
C1226       C  0.48505535  0.47709812  0.29537008    -0.12300
C1227       C  0.44742474  0.47204913  0.29146608     0.01800
C1228       C  0.42962980  0.99523766  0.26239007    -0.00600
C1229       C  0.45149752  0.97539599  0.23750796    -0.12300
C1230       C  0.48931671  0.97740556  0.24172202     0.01600
H1231       H  0.49919598  0.46260199  0.31872862     0.14600
H1232       H  0.43903136  0.95782438  0.21487519     0.14600
C1233       C  0.51038056  0.95513442  0.21575745     0.36300
C1234       C  0.42918785  0.44727539  0.31888831     0.36200
N1235       N  0.52711770  0.93720946  0.19489293    -0.44100
N1236       N  0.41461142  0.42755904  0.34092503    -0.44100
C1237       C  0.66926710  0.89362394  0.07827142    -0.00500
C1238       C  0.70494032  0.88930025  0.06826618    -0.12300
C1239       C  0.73002778  0.91943803  0.08470398     0.01800
C1240       C  0.71634686  0.95617023  0.10470973    -0.00600
C1241       C  0.68076554  0.97188001  0.09800353    -0.12300
C1242       C  0.65635306  0.94002377  0.08235924     0.01600
H1243       H  0.71415935  0.85613546  0.05767572     0.14600
H1244       H  0.67126045  0.00439060  0.10937588     0.14600
C1245       C  0.61805785  0.95022905  0.08078293     0.36300
C1246       C  0.76789205  0.90677104  0.08611656     0.36200
N1247       N  0.58731614  0.95821950  0.07973540    -0.44100
N1248       N  0.79786569  0.89484732  0.08747533    -0.44100
C1249       C  0.59862844  0.70175253  0.22560473    -0.00500
C1250       C  0.62744763  0.68548523  0.20722733    -0.12300
C1251       C  0.64021217  0.72116548  0.18642695     0.01800
C1252       C  0.61513564  0.74299313  0.16228029    -0.00600
C1253       C  0.57880280  0.74456089  0.17223187    -0.12300
C1254       C  0.57118705  0.72778123  0.20614618     0.01600
H1255       H  0.64787208  0.66300568  0.22053127     0.14600
H1256       H  0.55914879  0.76632662  0.15727622     0.14600
C1257       C  0.53930743  0.74469096  0.22220683     0.36300
C1258       C  0.66447946  0.75366955  0.20531975     0.36200
N1259       N  0.51413763  0.75899655  0.23540100    -0.44100
N1260       N  0.68085490  0.78342383  0.21939866    -0.44100
C1261       C  0.60650790  0.77208419  0.43437257    -0.00500
C1262       C  0.57713848  0.75082926  0.45099223    -0.12300
C1263       C  0.57586072  0.75050784  0.48791179     0.01800
C1264       C  0.60324812  0.76765886  0.00832145    -0.00600
C1265       C  0.63705706  0.78063764  0.49173929    -0.12300
C1266       C  0.63627023  0.78844796  0.45580752     0.01600
H1267       H  0.55426040  0.73735901  0.43522577     0.14600
H1268       H  0.65946537  0.78698063  0.00959525     0.14600
C1269       C  0.66475356  0.81842218  0.44324460     0.36300
C1270       C  0.53826881  0.74699825  0.00086658     0.36200
N1271       N  0.68734069  0.84367010  0.43422696    -0.44100
N1272       N  0.51054300  0.73960196  0.01257334    -0.44100
C1273       C  0.75665847  0.63634061  0.43718308    -0.00500
C1274       C  0.77022875  0.68281977  0.44047938    -0.12300
C1275       C  0.74615790  0.71999341  0.43320094     0.01800
C1276       C  0.71035191  0.70742850  0.42344705    -0.00600
C1277       C  0.69623867  0.66483923  0.43637302    -0.12300
C1278       C  0.72052069  0.62842236  0.44500113     0.01600
H1279       H  0.79911744  0.68949165  0.44016426     0.14600
H1280       H  0.66745027  0.65738392  0.43361252     0.14600
C1281       C  0.70819154  0.58331525  0.45844042     0.36300
C1282       C  0.75994385  0.76726741  0.42689815     0.36200
N1283       N  0.69835857  0.54722962  0.46947208    -0.44100
N1284       N  0.77103494  0.80518597  0.42198959    -0.44100
C1285       C  0.84387407  0.50943545  0.36204799    -0.00500
C1286       C  0.87098166  0.52944870  0.34227643    -0.12300
C1287       C  0.87054461  0.51971551  0.30660854     0.01800
C1288       C  0.84529009  0.98283736  0.29286248    -0.00600
C1289       C  0.82973313  0.95109766  0.31650623    -0.12300
C1290       C  0.83168588  0.96197871  0.35203612     0.01600
H1291       H  0.88628204  0.55974968  0.35223430     0.14600
H1292       H  0.81304150  0.92164662  0.30724549     0.14600
C1293       C  0.81456920  0.93139067  0.37696102     0.36300
C1294       C  0.89297571  0.54850534  0.28475755     0.36200
N1295       N  0.80080239  0.90710536  0.39705699    -0.44100
N1296       N  0.91080815  0.57194985  0.26740432    -0.44100
C1297       C  0.86226912  0.53404984  0.01043662    -0.00500
C1298       C  0.87328977  0.57177806  0.03228020    -0.12300
C1299       C  0.86612575  0.57078965  0.06780773     0.01800
C1300       C  0.85054153  0.52984194  0.08236434    -0.00600
C1301       C  0.85345132  0.98834635  0.06368115    -0.12300
C1302       C  0.85800980  0.98961606  0.02743702     0.01600
H1303       H  0.88223267  0.60479445  0.02043214     0.14600
H1304       H  0.84704178  0.95501639  0.07639417     0.14600
C1305       C  0.85198242  0.94682530  0.00764748     0.36300
C1306       C  0.87243881  0.61323778  0.08802765     0.36200
N1307       N  0.83651611  0.91550993  0.49259393    -0.44100
N1308       N  0.87733852  0.64746059  0.10403382    -0.44100
C1309       C  0.78251857  0.60589130  0.91489279     0.29700
C1310       C  0.82383246  0.54570324  0.87934929     0.29700
C1311       C  0.80344167  0.62987695  0.88488444    -0.06500
C1312       C  0.81188005  0.57965854  0.93592213    -0.07300
C1313       C  0.76086971  0.56558209  0.89556630    -0.07200
C1314       C  0.82461401  0.59918364  0.86646456    -0.06500
C1315       C  0.83298551  0.54851877  0.91876309    -0.07300
C1316       C  0.78218691  0.53511884  0.87712756    -0.07200
C1317       C  0.83310032  0.62415917  0.83582995    -0.32600
N1318       N  0.81957070  0.66930537  0.83600408     0.13900
C1319       C  0.79983589  0.67189042  0.86490224    -0.32600
H1320       H  0.78120223  0.70047918  0.86896211     0.15900
C1321       C  0.85618926  0.52721915  0.94424831    -0.31500
N1322       N  0.84932918  0.54673139  0.97562487     0.12700
C1323       C  0.82230696  0.57853575  0.97047233    -0.31500
C1324       C  0.75746399  0.00622625  0.85250751    -0.31800
N1325       N  0.72249491  0.01774603  0.85811590     0.13200
H1326       H  0.76494090  0.98319661  0.83176032     0.15800
C1327       C  0.72462988  0.55566173  0.88518177    -0.31800
H1328       H  0.70108965  0.57603243  0.89133863     0.15800
H1329       H  0.81000646  0.59802519  0.99097669     0.15800
H1330       H  0.84513251  0.60928548  0.81334278     0.15900
H1331       H  0.87690894  0.99705625  0.94014095     0.15800
O1332       O  0.68697563  0.76131532  0.88581707    -0.82100
C1333       C  0.60908426  0.71515455  0.76105953     0.97200
O1334       O  0.63615538  0.69195295  0.77496332    -0.71200
O1335       O  0.69778114  0.73333586  0.78912109    -0.74800
Al1336     Al  0.66736518  0.69711283  0.81707423     1.49000
C1337       C  0.71726162  0.76856584  0.79706702     0.92500
O1338       O  0.64919574  0.82762793  0.81146401    -0.81000
O1339       O  0.59315844  0.74548669  0.87601157    -0.74600
Al1340     Al  0.66748067  0.79406246  0.84911556     1.90100
O1341       O  0.59322203  0.82155683  0.82524771    -0.73700
O1342       O  0.58701249  0.67716690  0.82202805    -0.73500
O1343       O  0.59479517  0.74914107  0.77689304    -0.79200
O1344       O  0.63987788  0.65513885  0.84271490    -0.77400
O1345       O  0.64371153  0.74555963  0.83083352    -1.13500
O1346       O  0.70028946  0.69588274  0.85811696    -0.72700
C1347       C  0.70027067  0.72097987  0.88560379     0.98000
C1348       C  0.62020712  0.84741738  0.81670490     0.94400
Al1349     Al  0.59502403  0.74833183  0.82596432     1.55600
O1350       O  0.71158649  0.79141942  0.82414492    -0.77300
C1351       C  0.61045159  0.64423194  0.82750042     0.98600
C1352       C  0.60949786  0.77597728  0.89536831     0.93400
O1353       O  0.62967723  0.80722513  0.88162120    -0.82700
C1354       C  0.65893878  0.85546950  0.60233833     0.29700
C1355       C  0.63063166  0.78282928  0.63847978     0.29700
C1356       C  0.64440779  0.87029260  0.63723303    -0.06500
C1357       C  0.62546117  0.83139579  0.58509315    -0.07300
C1358       C  0.68632515  0.81423938  0.61368612    -0.07200
C1359       C  0.62997893  0.83334956  0.65616101    -0.06500
C1360       C  0.61190926  0.79149361  0.60200166    -0.07300
C1361       C  0.67073008  0.77513462  0.62903962    -0.07200
C1362       C  0.61839230  0.85381202  0.68687414    -0.32600
N1363       N  0.62455108  0.90195085  0.68613530     0.13900
C1364       C  0.64086832  0.91182800  0.65605220    -0.32600
H1365       H  0.65116513  0.94658436  0.64986121     0.15900
C1366       C  0.60062855  0.76153306  0.57446397    -0.31500
N1367       N  0.60220164  0.78578947  0.54330626     0.12700
C1368       C  0.61545801  0.82944765  0.55056544    -0.31500
C1369       C  0.69873421  0.74541940  0.64214782    -0.31800
N1370       N  0.73047980  0.76921338  0.64284005     0.13200
H1371       H  0.69590122  0.71104598  0.65478025     0.15800
C1372       C  0.72300452  0.81187292  0.62637834    -0.31800
H1373       H  0.74172714  0.84118122  0.62733840     0.15800
H1374       H  0.62442629  0.85447218  0.53096385     0.15800
H1375       H  0.60727838  0.83469801  0.70864161     0.15900
H1376       H  0.59677113  0.72344360  0.57674753     0.15800
O1377       O  0.75867069  0.01238510  0.62474657    -0.82100
C1378       C  0.83041892  0.98959899  0.75670049     0.97200
O1379       O  0.80262995  0.96585341  0.74684369    -0.71200
O1380       O  0.74900189  0.02091106  0.72739576    -0.74800
Al1381     Al  0.77105178  0.97051048  0.70479721     1.49000
C1382       C  0.72317980  0.54258443  0.71560078     0.92500
O1383       O  0.79031375  0.60150373  0.68663236    -0.81000
O1384       O  0.84982143  0.00236168  0.64052821    -0.74600
Al1385     Al  0.77338481  0.55654817  0.65838286     1.90100
O1386       O  0.84837015  0.58230308  0.68454651    -0.73700
O1387       O  0.84887584  0.94071651  0.69690644    -0.73500
O1388       O  0.84563360  0.52023006  0.73677484    -0.79200
O1389       O  0.79272134  0.91767028  0.68604457    -0.77400
O1390       O  0.79719880  0.01146620  0.68272021    -1.13500
O1391       O  0.73512790  0.96566046  0.66478615    -0.72700
C1392       C  0.73820006  0.97962995  0.63298442     0.98000
C1393       C  0.82305690  0.61258929  0.68890042     0.94400
Al1394     Al  0.84464879  0.01127148  0.68871388     1.55600
O1395       O  0.72636216  0.55696641  0.68410515    -0.77300
C1396       C  0.82475404  0.90794237  0.69615130     0.98600
C1397       C  0.83617401  0.53373665  0.61849012     0.93400
O1398       O  0.81251123  0.56422953  0.62627672    -0.82700
O1399       O  0.56574183  0.01416152  0.74902900    -0.82100
C1400       C  0.69140722  0.00174929  0.83643443     0.97200
O1401       O  0.65967706  0.99550982  0.84856963    -0.71200
O1402       O  0.61525447  0.56200345  0.83250284    -0.74800
Al1403     Al  0.61001409  0.99661727  0.82331381     1.49000
C1404       C  0.60860181  0.59589574  0.81158666     0.92500
O1405       O  0.66331812  0.55733642  0.73895586    -0.81000
O1406       O  0.63562600  0.91850955  0.74512491    -0.74600
Al1407     Al  0.61531836  0.53130592  0.74883956     1.90100
O1408       O  0.68531773  0.98667859  0.73645719    -0.73700
O1409       O  0.65563807  0.91496624  0.81256787    -0.73500
O1410       O  0.69671986  0.99228619  0.80488756    -0.79200
O1411       O  0.59999838  0.92876564  0.82184634    -0.77400
O1412       O  0.62958845  0.99690983  0.78150174    -1.13500
O1413       O  0.56085912  0.00122167  0.80522737    -0.72700
C1414       C  0.54659668  0.00500770  0.77451714     0.98000
C1415       C  0.68868952  0.52953188  0.73152210     0.94400
Al1416     Al  0.66537364  0.95644469  0.77541784     1.55600
O1417       O  0.60650577  0.58888104  0.77832718    -0.77300
C1418       C  0.62436160  0.89938548  0.81711858     0.98600
C1419       C  0.62454042  0.93441896  0.71539153     0.93400
O1420       O  0.61832448  0.97959934  0.71091560    -0.82700
O1421       O  0.87754553  0.79088348  0.75958527    -0.82100
C1422       C  0.76203826  0.75624648  0.66588979     0.97200
O1423       O  0.79076205  0.78081319  0.66638368    -0.71200
O1424       O  0.84630103  0.82896011  0.69475475    -0.74800
Al1425     Al  0.83566566  0.76230167  0.69166298     1.49000
C1426       C  0.83111616  0.86005025  0.71214289     0.92500
O1427       O  0.77798806  0.79489518  0.78750421    -0.81000
O1428       O  0.78864351  0.69584449  0.78449115    -0.74600
Al1429     Al  0.82691592  0.79104432  0.76918955     1.90100
O1430       O  0.74632676  0.75932586  0.74561248    -0.73700
O1431       O  0.81390032  0.66684042  0.72888819    -0.73500
O1432       O  0.76058156  0.72053881  0.68683817    -0.79200
O1433       O  0.83122274  0.69529261  0.67919293    -0.77400
O1434       O  0.81410666  0.75644824  0.73248124    -1.13500
O1435       O  0.88043428  0.74587797  0.71326932    -0.72700
C1436       C  0.89534437  0.76420915  0.74019482     0.98000
C1437       C  0.74805342  0.77815581  0.77514761     0.94400
Al1438     Al  0.78004681  0.71386242  0.73583958     1.55600
O1439       O  0.81792765  0.84912022  0.74145135    -0.77300
C1440       C  0.82758532  0.66053670  0.70030193     0.98600
C1441       C  0.81543505  0.70144239  0.80574552     0.93400
O1442       O  0.83745386  0.73546212  0.80049392    -0.82700
C1443       C  0.16908578  0.55191602  0.61306130     0.29700
C1444       C  0.11799689  0.49998350  0.64409705     0.29700
C1445       C  0.14718982  0.57886044  0.64020002    -0.06500
C1446       C  0.13933747  0.53322472  0.58809199    -0.07300
C1447       C  0.18285132  0.50479372  0.63057797    -0.07200
C1448       C  0.12087771  0.55290324  0.65609825    -0.06500
C1449       C  0.11313316  0.50575224  0.60365859    -0.07300
C1450       C  0.15817186  0.48180576  0.65046900    -0.06400
C1451       C  0.10550648  0.58421926  0.67932953    -0.32600
N1452       N  0.12069179  0.62857877  0.67706791     0.13900
C1453       C  0.14669211  0.62504890  0.65333389    -0.32600
H1454       H  0.16594030  0.65293891  0.64800736     0.15900
C1455       C  0.08954911  0.49031994  0.57672819    -0.31500
N1456       N  0.10109217  0.50828066  0.54592145     0.12700
C1457       C  0.13150619  0.53427276  0.55274584    -0.31500
C1458       C  0.18016689  0.95967002  0.67569148    -0.31800
N1459       N  0.21585110  0.96337973  0.66824176     0.13200
H1460       H  0.17133355  0.94613241  0.70037846     0.15800
C1461       C  0.21702903  0.48653627  0.63959666    -0.31800
H1462       H  0.24205440  0.49688482  0.62814618     0.15800
H1463       H  0.14714802  0.55174182  0.53312265     0.15800
H1464       H  0.08635275  0.57490164  0.69859826     0.15900
H1465       H  0.06626953  0.96569161  0.57930681     0.15800
O1466       O  0.26735888  0.72992448  0.62532546    -0.82100
C1467       C  0.32882619  0.70768168  0.76334647     0.97200
O1468       O  0.30081335  0.68506037  0.75228615    -0.71200
O1469       O  0.24978736  0.74188055  0.72717508    -0.74800
Al1470     Al  0.27252755  0.68952338  0.70753285     1.49000
C1471       C  0.22473356  0.76154648  0.70930313     0.92500
O1472       O  0.29294549  0.81638566  0.68709149    -0.81000
O1473       O  0.35604226  0.71806968  0.64905481    -0.74600
Al1474     Al  0.28055785  0.77273518  0.65759443     1.90100
O1475       O  0.35147089  0.80015935  0.69419451    -0.73700
O1476       O  0.35010642  0.65522644  0.70752519    -0.73500
O1477       O  0.34306477  0.73787844  0.74405494    -0.79200
O1478       O  0.29469317  0.63509222  0.69162039    -0.77400
O1479       O  0.30073377  0.72871440  0.68702621    -1.13500
O1480       O  0.24061929  0.68438762  0.66418566    -0.72700
C1481       C  0.24837280  0.69516853  0.63248622     0.98000
C1482       C  0.32420875  0.82831311  0.69685639     0.94400
Al1483     Al  0.34753900  0.72780483  0.69712801     1.55600
O1484       O  0.23077152  0.77326574  0.67774991    -0.77300
C1485       C  0.32483616  0.62337922  0.70561500     0.98600
C1486       C  0.34638314  0.74842623  0.62555592     0.93400
O1487       O  0.32382197  0.78097536  0.63163316    -0.82700
C1488       C  0.26831894  0.79690933  0.91384071     0.29700
C1489       C  0.31928164  0.74546006  0.88330360     0.29700
C1490       C  0.29012802  0.82430311  0.88612434    -0.06500
C1491       C  0.29810739  0.77760009  0.93881264    -0.07300
C1492       C  0.25448189  0.75013430  0.89702586    -0.07200
C1493       C  0.31642193  0.79851534  0.87058561    -0.06500
C1494       C  0.32428641  0.75041817  0.92361680    -0.07300
C1495       C  0.27921546  0.72777976  0.87734330    -0.07200
C1496       C  0.33196035  0.82999055  0.84690337    -0.32600
N1497       N  0.31692776  0.87433202  0.84846325     0.13900
C1498       C  0.29081215  0.87066028  0.87219909    -0.32600
H1499       H  0.27175406  0.89864451  0.87711657     0.15900
C1500       C  0.34782740  0.73457201  0.95079051    -0.31500
N1501       N  0.33616609  0.75208989  0.98123578     0.12700
C1502       C  0.30574670  0.77794813  0.97409105    -0.31500
C1503       C  0.25776941  0.70849638  0.84966475    -0.31800
N1504       N  0.22201039  0.71076893  0.85671592     0.13200
H1505       H  0.26713086  0.69796142  0.82469331     0.15800
C1506       C  0.22048307  0.73192882  0.88793174    -0.31800
H1507       H  0.19533852  0.74161167  0.89920376     0.15800
H1508       H  0.29006074  0.79492685  0.99348629     0.15800
H1509       H  0.35120053  0.82085672  0.82787748     0.15900
H1510       H  0.37139712  0.71221692  0.94866694     0.15800
O1511       O  0.17410302  0.97732592  0.90022320    -0.82100
C1512       C  0.10977119  0.95676338  0.76354125     0.97200
O1513       O  0.13781839  0.93363771  0.77444963    -0.71200
O1514       O  0.18948039  0.98864071  0.79792458    -0.74800
Al1515     Al  0.16674344  0.93662857  0.81889923     1.49000
C1516       C  0.21568711  0.50986023  0.81554552     0.92500
O1517       O  0.14787969  0.56431531  0.83639761    -0.81000
O1518       O  0.08500436  0.96492464  0.87880869    -0.74600
Al1519     Al  0.16081309  0.52091326  0.86713981     1.90100
O1520       O  0.08917813  0.54871824  0.83203507    -0.73700
O1521       O  0.08903921  0.90312314  0.81999298    -0.73500
O1522       O  0.09697031  0.48791674  0.78291116    -0.79200
O1523       O  0.14423906  0.88255484  0.83602760    -0.77400
O1524       O  0.13928576  0.97586952  0.83908892    -1.13500
O1525       O  0.19914844  0.93044467  0.86221990    -0.72700
C1526       C  0.19230506  0.94192365  0.89380242     0.98000
C1527       C  0.11631930  0.57678376  0.82783570     0.94400
Al1528     Al  0.09227294  0.97547147  0.82999710     1.55600
O1529       O  0.20999637  0.52145629  0.84679040    -0.77300
C1530       C  0.11436172  0.87135953  0.82157402     0.98600
C1531       C  0.09552048  0.49687525  0.90091479     0.93400
O1532       O  0.11828791  0.52894287  0.89350758    -0.82700
O1533       O  0.06680785  0.74187399  0.74266286    -0.82100
C1534       C  0.19117878  0.70647418  0.83185066     0.97200
O1535       O  0.15869837  0.70833430  0.84217476    -0.71200
O1536       O  0.12202139  0.78764309  0.82413043    -0.74800
Al1537     Al  0.11130664  0.72271279  0.81706472     1.49000
C1538       C  0.11298312  0.82265325  0.80461380     0.92500
O1539       O  0.16500310  0.78146667  0.73084942    -0.81000
O1540       O  0.13027122  0.64519817  0.73550877    -0.74600
Al1541     Al  0.11558792  0.75939858  0.73949961     1.90100
O1542       O  0.18497944  0.70828286  0.73071543    -0.73700
O1543       O  0.14702137  0.63340206  0.79923421    -0.73500
O1544       O  0.19659000  0.70241144  0.79961737    -0.79200
O1545       O  0.09498926  0.65687296  0.81624535    -0.77400
O1546       O  0.12975965  0.72066906  0.77473380    -1.13500
O1547       O  0.06336838  0.73828339  0.79995948    -0.72700
C1548       C  0.04848399  0.74063892  0.76950135     0.98000
C1549       C  0.18875679  0.75144327  0.72276975     0.94400
Al1550     Al  0.16198788  0.67630459  0.76694971     1.55600
O1551       O  0.10855994  0.81644490  0.77124924    -0.77300
C1552       C  0.11730621  0.62419710  0.81222310     0.98600
C1553       C  0.12194738  0.66216486  0.70575092     0.93400
O1554       O  0.11848600  0.70780259  0.70188215    -0.82700
O1555       O  0.37207008  0.98903112  0.78188324    -0.82100
C1556       C  0.24713311  0.95725717  0.69264182     0.97200
O1557       O  0.27953402  0.96060234  0.68218387    -0.71200
O1558       O  0.31742851  0.53963478  0.70235722    -0.74800
Al1559     Al  0.32707576  0.97416861  0.70740268     1.49000
C1560       C  0.32665727  0.57368491  0.72190970     0.92500
O1561       O  0.27513003  0.52961124  0.79427773    -0.81000
O1562       O  0.30871345  0.89252827  0.78968812    -0.74600
Al1563     Al  0.32412598  0.50774287  0.78657097     1.90100
O1564       O  0.25362649  0.95523742  0.79310052    -0.73700
O1565       O  0.29292368  0.88243425  0.72598550    -0.73500
O1566       O  0.24211745  0.95038645  0.72477416    -0.79200
O1567       O  0.34393283  0.90864433  0.70765847    -0.77400
O1568       O  0.30893958  0.96942274  0.74981766    -1.13500
O1569       O  0.37535739  0.98894746  0.72465581    -0.72700
C1570       C  0.39053734  0.98824954  0.75513409     0.98000
C1571       C  0.25137033  0.49944153  0.80257378     0.94400
Al1572     Al  0.27705239  0.92415315  0.75768768     1.55600
O1573       O  0.33163377  0.56574976  0.75508047    -0.77300
C1574       C  0.32257272  0.87488797  0.71256201     0.98600
C1575       C  0.31638297  0.90860090  0.81944040     0.93400
O1576       O  0.32000510  0.95402099  0.82293630    -0.82700
C1577       C  0.19925805  0.90943077  0.92300809    -0.00500
C1578       C  0.18213880  0.86636444  0.91750671    -0.12300
C1579       C  0.20585127  0.83237475  0.90765805     0.01800
C1580       C  0.23969724  0.82837382  0.92708435    -0.00600
C1581       C  0.25122094  0.86767002  0.94756101    -0.12300
C1582       C  0.23219432  0.91049903  0.94286139     0.01600
H1583       H  0.15535971  0.86697716  0.90428856     0.14600
H1584       H  0.27806625  0.86833309  0.96031949     0.14600
C1585       C  0.24885782  0.95487602  0.95318395     0.36300
C1586       C  0.20333153  0.82439786  0.87012711     0.36200
N1587       N  0.26214932  0.99051710  0.96155525    -0.44100
N1588       N  0.20232802  0.81838973  0.84021746    -0.44100
C1589       C  0.34750454  0.71292661  0.86852465    -0.00500
C1590       C  0.37423769  0.73511529  0.84962317    -0.12300
C1591       C  0.37278698  0.72930622  0.81341774     0.01800
C1592       C  0.34565535  0.69885385  0.79853174    -0.00600
C1593       C  0.33216277  0.66274038  0.81995349    -0.12300
C1594       C  0.33582987  0.66806347  0.85619991     0.01600
H1595       H  0.38987949  0.76410478  0.86114101     0.14600
H1596       H  0.31554049  0.63431203  0.80892368     0.14600
C1597       C  0.31900646  0.63400266  0.87887695     0.36300
C1598       C  0.39644171  0.75795639  0.79275051     0.36200
N1599       N  0.30527492  0.60675035  0.89692322    -0.44100
N1600       N  0.41555762  0.78077434  0.77628654    -0.44100
C1601       C  0.35776744  0.74390352  0.58954095    -0.00500
C1602       C  0.34615131  0.70349053  0.57101806    -0.12300
C1603       C  0.34325385  0.70462382  0.53436906     0.01800
C1604       C  0.35232852  0.74645015  0.51609116    -0.00600
C1605       C  0.36811567  0.78456796  0.53451483    -0.12300
C1606       C  0.37105502  0.78350104  0.57112892     0.01600
H1607       H  0.33568179  0.67303032  0.58508368     0.14600
H1608       H  0.37522650  0.81667234  0.52032692     0.14600
C1609       C  0.38585669  0.82432913  0.58933104     0.36300
C1610       C  0.32690553  0.66485417  0.51611762     0.36200
N1611       N  0.39807925  0.85688489  0.60387581    -0.44100
N1612       N  0.32615563  0.62593151  0.00178347    -0.44100
C1613       C  0.19842995  0.58331746  0.60049253    -0.00500
C1614       C  0.18843300  0.62324564  0.57912374    -0.12300
C1615       C  0.20838302  0.66530277  0.58377523     0.01800
C1616       C  0.24093937  0.66261382  0.60428890    -0.00600
C1617       C  0.25649776  0.61878226  0.61159392    -0.12300
C1618       C  0.23128544  0.58643192  0.62153875     0.01600
H1619       H  0.16196255  0.62492687  0.56560945     0.14600
H1620       H  0.28280518  0.61798763  0.62569340     0.14600
C1621       C  0.23150873  0.57902500  0.65939183     0.36300
C1622       C  0.19246608  0.71063622  0.57374040     0.36200
N1623       N  0.23067480  0.57375419  0.68943546    -0.44100
N1624       N  0.17983750  0.74724701  0.56605904    -0.44100
C1625       C  0.08918837  0.46753006  0.65872408    -0.00500
C1626       C  0.06317284  0.48944788  0.67809742    -0.12300
C1627       C  0.06582217  0.48280039  0.71435744     0.01800
C1628       C  0.09249218  0.94909557  0.72860766    -0.00600
C1629       C  0.10573708  0.91396820  0.70702161    -0.12300
C1630       C  0.10123497  0.92077460  0.67081362     0.01600
H1631       H  0.04750860  0.51896832  0.66670956     0.14600
H1632       H  0.12238247  0.88498340  0.71780295     0.14600
C1633       C  0.11566513  0.88673613  0.64741675     0.36300
C1634       C  0.04360043  0.51199430  0.73543020     0.36200
N1635       N  0.12684584  0.85920351  0.62857717    -0.44100
N1636       N  0.02576660  0.53545361  0.75219444    -0.44100
C1637       C  0.08564419  0.50175106  0.51099682    -0.00500
C1638       C  0.07457142  0.54055623  0.98953197    -0.12300
C1639       C  0.07334398  0.53814797  0.95300166     0.01800
C1640       C  0.08298449  0.49556054  0.93686473    -0.00600
C1641       C  0.08818787  0.95207393  0.95754526    -0.12300
C1642       C  0.08973922  0.95372493  0.99433244     0.01600
H1643       H  0.07590613  0.57666026  0.50302664     0.14600
H1644       H  0.09436795  0.91906041  0.94481602     0.14600
C1645       C  0.09969837  0.91415263  0.51503893     0.36300
C1646       C  0.06531793  0.58089503  0.93251341     0.36200
N1647       N  0.10762972  0.88040383  0.53142520    -0.44100
N1648       N  0.05919025  0.61491598  0.91577977    -0.44100
C1649       C  0.93424109  0.75502231  0.74888421    -0.00500
C1650       C  0.95177022  0.78093835  0.77597503    -0.12300
C1651       C  0.98874174  0.77515323  0.78426991     0.01800
C1652       C  0.00897162  0.74352022  0.76483905    -0.00600
C1653       C  0.99154123  0.71639798  0.73864446    -0.12300
C1654       C  0.95439493  0.72100206  0.73094231     0.01600
H1655       H  0.93676954  0.80650889  0.79043390     0.14600
H1656       H  0.00709342  0.69135958  0.72419083     0.14600
C1657       C  0.93808155  0.68948138  0.70507351     0.36300
C1658       C  0.00552034  0.80388159  0.81160102     0.36200
N1659       N  0.92515522  0.66389235  0.68453778    -0.44100
N1660       N  0.01889525  0.82682169  0.83357237    -0.44100
C1661       C  0.50681387  0.99867284  0.76825619    -0.00500
C1662       C  0.48678606  0.49925278  0.80087148    -0.12300
C1663       C  0.44906770  0.49657263  0.79703669     0.01800
C1664       C  0.43058753  0.98860452  0.75951707    -0.00600
C1665       C  0.45036768  0.00944264  0.73299591    -0.12300
C1666       C  0.48794954  0.01483182  0.73703163     0.01600
H1667       H  0.49937165  0.50373186  0.82687797     0.14600
H1668       H  0.43625461  0.02320818  0.70937403     0.14600
C1669       C  0.50580994  0.03897373  0.70909603     0.36300
C1670       C  0.42937548  0.50118047  0.82846610     0.36200
N1671       N  0.51998436  0.05839084  0.68666887    -0.44100
N1672       N  0.41371276  0.50521178  0.85366242    -0.44100
C1673       C  0.67299966  0.89337790  0.57784817    -0.00500
C1674       C  0.70924655  0.88935882  0.56950363    -0.12300
C1675       C  0.73325667  0.92064492  0.58626232     0.01800
C1676       C  0.71829247  0.95836637  0.60433300    -0.00600
C1677       C  0.68269704  0.97294618  0.59581781    -0.12300
C1678       C  0.65932105  0.93967963  0.58024142     0.01600
H1679       H  0.71937096  0.85596775  0.56009819     0.14600
H1680       H  0.67227176  0.00587730  0.60573782     0.14600
C1681       C  0.62096147  0.94900807  0.57621589     0.36300
C1682       C  0.77106377  0.90795131  0.59073950     0.36200
N1683       N  0.59013409  0.95605767  0.57278340    -0.44100
N1684       N  0.80086048  0.89586620  0.59523031    -0.44100
C1685       C  0.59694942  0.70377516  0.72475005    -0.00500
C1686       C  0.62489533  0.68590996  0.70586708    -0.12300
C1687       C  0.63925997  0.72148601  0.68592791     0.01800
C1688       C  0.61513403  0.74544465  0.66214480    -0.00600
C1689       C  0.57877437  0.74886939  0.67193512    -0.12300
C1690       C  0.57038047  0.73151699  0.70552593     0.01600
H1691       H  0.64428523  0.66150619  0.71869832     0.14600
H1692       H  0.55987412  0.77190489  0.65713696     0.14600
C1693       C  0.53856035  0.74873439  0.72149923     0.36300
C1694       C  0.66373527  0.75256517  0.70593985     0.36200
N1695       N  0.51327801  0.76303205  0.73451015    -0.44100
N1696       N  0.68033706  0.78113783  0.72109968    -0.44100
C1697       C  0.60714289  0.77362309  0.93426496    -0.00500
C1698       C  0.57542190  0.75701479  0.94952896    -0.12300
C1699       C  0.57277411  0.75634137  0.98630682     0.01800
C1700       C  0.60571326  0.76738967  0.50856915    -0.00600
C1701       C  0.63602056  0.77754992  0.99281651    -0.12300
C1702       C  0.63725087  0.78554468  0.95692168     0.01600
H1703       H  0.55198348  0.74771792  0.93278998     0.14600
H1704       H  0.66044955  0.79288879  0.50747196     0.14600
C1705       C  0.66842002  0.81138510  0.94558201     0.36300
C1706       C  0.54345222  0.73471876  0.50392948     0.36200
N1707       N  0.69322924  0.83348858  0.93767044    -0.44100
N1708       N  0.51744297  0.72177944  0.51672344    -0.44100
C1709       C  0.76386916  0.63777194  0.93962868    -0.00500
C1710       C  0.77585628  0.68504283  0.94100637    -0.12300
C1711       C  0.75141470  0.71968712  0.92874786     0.01800
C1712       C  0.71647301  0.70402180  0.91817087    -0.00600
C1713       C  0.70278728  0.66194333  0.93232257    -0.12300
C1714       C  0.72764083  0.62915239  0.94643691     0.01600
H1715       H  0.80462062  0.69289210  0.94171744     0.14600
H1716       H  0.67449882  0.65231594  0.92806699     0.14600
C1717       C  0.71610144  0.58468451  0.96160093     0.36300
C1718       C  0.76474150  0.76608869  0.91891220     0.36200
N1719       N  0.70696159  0.54907369  0.97396254    -0.44100
N1720       N  0.77557342  0.80308242  0.91080459    -0.44100
C1721       C  0.84839032  0.51094212  0.86211545    -0.00500
C1722       C  0.87563509  0.53010734  0.84217031    -0.12300
C1723       C  0.87516286  0.51933962  0.80675198     0.01800
C1724       C  0.84695336  0.98312856  0.79220167    -0.00600
C1725       C  0.83126049  0.95108931  0.81552214    -0.12300
C1726       C  0.83343857  0.96128851  0.85114332     0.01600
H1727       H  0.89121568  0.56040114  0.85172038     0.14600
H1728       H  0.81399337  0.92235162  0.80597845     0.14600
C1729       C  0.81518438  0.93120242  0.87559141     0.36300
C1730       C  0.89814264  0.54676905  0.78457170     0.36200
N1731       N  0.80030052  0.90748896  0.89525120    -0.44100
N1732       N  0.91649998  0.56905954  0.76696668    -0.44100
C1733       C  0.85928761  0.54031240  0.51080857    -0.00500
C1734       C  0.86650182  0.58023344  0.53182139    -0.12300
C1735       C  0.86109966  0.57845166  0.56769156     0.01800
C1736       C  0.85082078  0.53523279  0.58338384    -0.00600
C1737       C  0.85165910  0.99056484  0.56382020    -0.12300
C1738       C  0.85413489  0.99153831  0.52739202     0.01600
H1739       H  0.87122148  0.61442095  0.51928155     0.14600
H1740       H  0.84420218  0.95791109  0.57678162     0.14600
C1741       C  0.84443752  0.94942081  0.50798061     0.36300
C1742       C  0.86391565  0.62190577  0.58734737     0.36200
N1743       N  0.84717166  0.91250443  0.99173110    -0.44100
N1744       N  0.86599619  0.65666394  0.60315841    -0.44100
loop_ 
_geom_bond_atom_site_label_1 
_geom_bond_atom_site_label_2 
_geom_bond_distance 
_geom_bond_site_symmetry_2 
_ccdc_geom_bond_type 
C1            C3   1.562       .  S
C1            C5   1.554       .  S
C1            C4   1.506       .  S
C1          C401   1.505       .  S
C2            C6   1.573       .  S
C2            C8   1.566       .  S
C2            C7   1.536       .  S
C2          C413   1.519       .  S
C3           C11   1.399       .  A
C3            C6   1.389       .  A
C4           C15   1.359       .  A
C4            C7   1.374       .  A
C5           C19   1.402       .  A
C5            C8   1.390       .  A
C6            C9   1.405       .  A
C7           C13   1.394       .  A
C8          C888   1.391       .  A
C9           N10   1.365       .  A
C9           H22   1.080       .  S
N10          C11   1.362       .  A
N10         C133   1.459       .  S
C11          H12   1.080       .  S
C13          N14   1.365       .  A
C13         H895   1.082   1_545  S
N14          C15   1.347       .  A
N14         C861   1.434       .  S
C15          H21   1.083       .  S
C16         C880   1.392       .  A
C16          N17   1.359       .  A
C16          H18   1.080       .  S
N17         C891   1.359       .  A
N17          C92   1.454       .  S
C19         N889   1.359       .  A
C19          H20   1.081       .  S
H23         C885   1.082       .  S
O24          C39   1.237       .  A
O24         Al32   1.796       .  S
C25          O35   1.271       .  A
C25          O26   1.283       .  A
C25         C377   1.476       .  S
O26         Al28   1.939       .  S
O27          C29   1.253       .  A
O27         Al28   1.872       .  S
Al28         O36   1.859       .  S
Al28         O38   1.934       .  S
Al28         O37   1.725       .  S
C29          O42   1.253       .  A
C29         C129   1.466       .  S
O30          C40   1.236       .  A
O30         Al32   1.817       .  S
O31          C44   1.275       .  A
O31         Al41   1.925       .  S
Al32         O45   1.953       .  S
Al32         O42   1.925       .  S
Al32         O37   1.760       .  S
O33          C40   1.286       .  A
O33         Al41   2.060       .  S
O34          C43   1.275       .  A
O34         Al41   2.032       .  S
O35         Al41   1.876       .  S
O36          C43   1.247       .  A
O37         Al41   1.802       .  S
O38          C39   1.276       .  A
C39         C404   1.436       .  S
C40         C110   1.472       .  S
C43          C96   1.507       .  S
C44          O45   1.275       .  A
C44         C389   1.495       .  S
C46          C48   1.531       .  S
C46          C50   1.581       .  S
C46          C49   1.534       .  S
C46         C365   1.519       .  S
C47          C51   1.584       .  S
C47          C53   1.563       .  S
C47          C52   1.545       .  S
C47         C380   1.512       .  S
C48          C56   1.392       .  A
C48          C51   1.379       .  A
C49          C60   1.359       .  A
C49          C52   1.394       .  A
C50          C64   1.419       .  A
C50          C53   1.375       .  A
C51          C54   1.406       .  A
C52          C58   1.405       .  A
C53          C61   1.400       .  A
C54          N55   1.373       .  A
C54          H67   1.082       .  S
N55          C56   1.350       .  A
N55         C111   1.458       .  S
C56          H57   1.073       .  S
C58          N59   1.368       .  A
C58          H68   1.082       .  S
N59          C60   1.348       .  A
N59         C392   1.445       .  S
C60          H66   1.084       .  S
C61          N62   1.349       .  A
C61          H63   1.080       .  S
N62          C64   1.367       .  A
N62         C114   1.470       .  S
C64          H65   1.073       .  S
O69          C84   1.239       .  A
O69        Al949   1.786       .  S
C70          O71   1.268       .  A
C70         O952   1.255       .  A
C70         C416   1.470       .  S
O71         Al73   1.936       .  S
O72         C946   1.245       .  A
O72         Al73   1.880       .  S
Al73         O81   1.857       .  S
Al73         O83   1.982       .  S
Al73         O82   1.738       .  S
C74          O87   1.280       .  A
C74         O944   1.246       .  A
C74         C107   1.495       .  S
O75          C85   1.248       .  A
O75         Al77   1.776       .  S
O76         C961   1.261       .  A
O76         Al86   1.885       .  S
Al77         O90   1.967       .  S
Al77         O87   2.056       .  S
Al77        O941   1.782       .  S
Al77        O954   1.777       .  S
O78          C85   1.284       .  A
O78        Al958   2.012       .  S
O79          C88   1.282       .  A
O79         Al86   2.012       .  S
O80         C942   1.256   1_545  A
O80        Al958   1.852       .  S
O81          C88   1.254       .  A
O82         Al86   1.758       .  S
O82        Al949   1.784       .  S
O83          C84   1.283       .  A
C84         C368   1.428       .  S
C85         C132   1.435       .  S
Al86        O950   2.006       .  S
Al86        O952   1.854       .  S
C88         C118   1.486       .  S
C89          O90   1.277       .  A
C89         O948   1.262   1_545  A
C89         C428   1.480       .  S
O91         C106   1.257       .  A
O91        Al971   1.878       .  S
C92         O102   1.267       .  A
C92          O93   1.292       .  A
O93         Al95   2.018       .  S
O94          C96   1.250       .  A
O94        Al967   1.851   1_545  S
Al95        O103   1.949       .  S
Al95        O105   1.907       .  S
Al95        O966   1.850       .  S
Al95        O104   1.789       .  S
C96         O109   1.293       .  A
O97         C107   1.273       .  A
O97         Al99   1.990       .  S
O98         C111   1.263       .  A
O98        Al108   1.895       .  S
Al99        O109   2.039       .  S
Al99        O963   1.885       .  S
Al99        O984   2.043   1_545  S
Al99        O976   1.764   1_545  S
O100        C979   1.254       .  A
O100       Al108   1.888       .  S
O101        C110   1.256       .  A
O101       Al108   1.875       .  S
O102       Al108   1.881       .  S
O103        C110   1.247       .  A
O104       Al108   1.772       .  S
O104       Al971   1.765       .  S
O105        C106   1.263       .  A
C106        C353   1.484       .  S
C107        O972   1.255   1_545  A
C111        O112   1.299       .  A
O112       Al971   2.046       .  S
O113        C128   1.270       .  A
O113       Al121   1.922       .  S
C114        O124   1.276       .  A
C114        O115   1.266       .  A
O115       Al117   1.948       .  S
O116        C118   1.257       .  A
O116       Al117   1.920       .  S
Al117       O125   1.956       .  S
Al117       O127   1.869       .  S
Al117       O126   1.796       .  S
C118        O131   1.278       .  A
O119        C129   1.270       .  A
O119       Al121   1.965       .  S
O120        C133   1.259       .  A
O120       Al130   1.928       .  S
Al121       O134   1.982       .  S
Al121       O131   1.953       .  S
Al121       O126   1.770       .  S
O122        C129   1.254       .  A
O122       Al130   1.840       .  S
O123        C132   1.245       .  A
O123       Al130   1.855       .  S
O124       Al130   1.979       .  S
O125        C132   1.269       .  A
O126       Al130   1.750       .  S
O127        C128   1.261       .  A
C128        C341   1.482       .  S
C133        O134   1.276       .  A
C135        C137   1.556       .  S
C135        C139   1.547       .  S
C135        C138   1.515       .  S
C135        C305   1.492       .  S
C136        C140   1.568   1_565  S
C136        C142   1.572       .  S
C136        C141   1.551   1_565  S
C136        C317   1.524       .  S
C137        C145   1.401       .  A
C137        C140   1.376       .  A
C138        C149   1.365       .  A
C138        C141   1.390       .  A
C139        C153   1.388   1_545  A
C139        C142   1.374   1_545  A
C140        C143   1.404       .  A
C141        C147   1.387   1_545  A
C142       C1022   1.406       .  A
C143        N144   1.371       .  A
C143        H156   1.079       .  S
N144        C145   1.361       .  A
N144        C245   1.460       .  S
C145        H146   1.081       .  S
C147        N148   1.363   1_565  A
C147       H1029   1.082       .  S
N148        C149   1.355       .  A
N148        C329   1.436   1_545  S
C149        H155   1.083       .  S
C150       C1014   1.408       .  A
C150        N151   1.368       .  A
C150        H152   1.079       .  S
N151       C1025   1.347       .  A
N151        C248   1.457       .  S
C153       N1023   1.346       .  A
C153        H154   1.082       .  S
H157       C1019   1.082       .  S
O158        C173   1.237       .  A
O158       Al166   1.783       .  S
C159        O169   1.250       .  A
C159        O160   1.272       .  A
C159        C284   1.470       .  S
O160       Al162   1.961       .  S
O161        C163   1.245       .  A
O161       Al162   1.879       .  S
Al162       O170   1.864       .  S
Al162       O172   1.995       .  S
Al162       O171   1.723       .  S
C163        O176   1.276       .  A
C163        C241   1.474       .  S
O164        C174   1.243       .  A
O164       Al166   1.725       .  S
O165        C178   1.266       .  A
O165       Al175   1.903       .  S
Al166       O179   1.937       .  S
Al166       O176   2.029       .  S
Al166       O171   1.794       .  S
O167        C174   1.291       .  A
O167       Al175   2.041       .  S
O168        C177   1.292       .  A
O168       Al175   2.070       .  S
O169       Al175   1.841       .  S
O170        C177   1.253       .  A
O171       Al175   1.755       .  S
O172        C173   1.292       .  A
C173        C308   1.440       .  S
C174        C266   1.453       .  S
C177        C252   1.519       .  S
C178        O179   1.272       .  A
C178        C293   1.471       .  S
C180        C182   1.553       .  S
C180        C184   1.548       .  S
C180        C183   1.513       .  S
C180        C272   1.495       .  S
C181        C185   1.563       .  S
C181        C187   1.567       .  S
C181        C186   1.550       .  S
C181        C281   1.527       .  S
C182        C190   1.397       .  A
C182        C185   1.379       .  A
C183        C194   1.363       .  A
C183        C186   1.393       .  A
C184        C198   1.385       .  A
C184        C187   1.375       .  A
C185        C188   1.400       .  A
C186        C192   1.384       .  A
C187        C195   1.404       .  A
C188        N189   1.368       .  A
C188        H201   1.078       .  S
N189        C190   1.361       .  A
N189        C267   1.454       .  S
C190        H191   1.082       .  S
C192        N193   1.361       .  A
C192        H202   1.082       .  S
N193        C194   1.352       .  A
N193        C732   1.430       .  S
C194        H200   1.083       .  S
C195        N196   1.365       .  A
C195        H197   1.079       .  S
N196        C198   1.345       .  A
N196        C226   1.450       .  S
C198        H199   1.082       .  S
O203        C218   1.238       .  A
O203      Al1083   1.789       .  S
C204        O205   1.272       .  A
C204       O1086   1.250       .  A
C204        C320   1.469       .  S
O205       Al207   1.963       .  S
O206       C1080   1.244       .  A
O206       Al207   1.875       .  S
Al207       O215   1.857       .  S
Al207       O217   1.992       .  S
Al207       O216   1.720       .  S
C208        O221   1.274       .  A
C208       O1078   1.244   1_545  A
C208        C263   1.471   1_545  S
O209        C219   1.245       .  A
O209       Al211   1.729       .  S
O210       C1095   1.272       .  A
O210       Al220   1.929       .  S
Al211       O224   1.929       .  S
Al211       O221   2.025       .  S
Al211      O1075   1.788   1_545  S
Al211      O1088   1.791   1_545  S
O212        C219   1.289       .  A
O212      Al1092   2.035   1_545  S
O213        C222   1.295       .  A
O213       Al220   2.086       .  S
O214       C1076   1.251       .  A
O214      Al1092   1.841       .  S
O215        C222   1.250       .  A
O216       Al220   1.751       .  S
O216      Al1083   1.791       .  S
O217        C218   1.294       .  A
C218        C269   1.445       .  S
C219        C244   1.450       .  S
Al220      O1084   2.054       .  S
Al220      O1086   1.836       .  S
C222        C230   1.529       .  S
C223        O224   1.271   1_565  A
C223       O1082   1.270       .  A
C223        C332   1.474       .  S
O225        C240   1.260       .  A
O225       Al233   1.876       .  S
C226        O236   1.266       .  A
C226        O227   1.285       .  A
O227       Al229   1.990       .  S
O228        C230   1.261       .  A
O228       Al229   1.891       .  S
Al229       O237   1.944       .  S
Al229       O239   1.907       .  S
Al229       O238   1.790       .  S
C230        O243   1.294       .  A
O231        C241   1.270       .  A
O231       Al233   1.965       .  S
O232        C245   1.249       .  A
O232       Al242   1.862       .  S
Al233       O246   2.075       .  S
Al233       O243   2.059       .  S
Al233       O238   1.775       .  S
O234        C241   1.256       .  A
O234       Al242   1.880       .  S
O235        C244   1.254       .  A
O235       Al242   1.814       .  S
O236       Al242   1.892       .  S
O237        C244   1.252       .  A
O238       Al242   1.765       .  S
O239        C240   1.263       .  A
C240        C344   1.465       .  S
C245        O246   1.295       .  A
O247        C262   1.259       .  A
O247      Al1127   1.876       .  S
C248        O258   1.266       .  A
C248        O249   1.286       .  A
O249       Al251   2.000       .  S
O250        C252   1.260       .  A
O250      Al1123   1.894   1_545  S
Al251       O259   1.948       .  S
Al251       O261   1.917       .  S
Al251      O1122   1.893       .  S
Al251       O260   1.788       .  S
C252        O265   1.288       .  A
O253        C263   1.270   1_545  A
O253       Al255   1.959       .  S
O254        C267   1.251       .  A
O254       Al264   1.865       .  S
Al255       O265   2.036       .  S
Al255      O1119   1.873   1_545  S
Al255      O1140   2.056   1_545  S
Al255      O1132   1.781   1_545  S
O256       C1135   1.255       .  A
O256       Al264   1.872       .  S
O257        C266   1.254       .  A
O257       Al264   1.816       .  S
O258       Al264   1.900       .  S
O259        C266   1.252       .  A
O260       Al264   1.765       .  S
O260      Al1127   1.780       .  S
O261        C262   1.267       .  A
C262        C356   1.478       .  S
C263       O1128   1.256       .  A
C267        O268   1.291       .  A
O268      Al1127   2.055       .  S
C269        C270   1.377       .  A
C269        C274   1.400       .  A
C270        C271   1.368       .  A
C270        H275   1.086       .  S
C271        C272   1.423       .  A
C271        C278   1.456       .  S
C272        C273   1.416       .  A
C273        C274   1.401       .  A
C273        H276   1.082       .  S
C274        C277   1.442       .  S
C277        N279   1.157       .  T
C278        N280   1.158       .  T
C281        C282   1.396       .  A
C281        C286   1.411       .  A
C282        C283   1.396       .  A
C282        H287   1.084       .  S
C283        C284   1.420       .  A
C283        C290   1.445       .  S
C284        C285   1.401       .  A
C285        C286   1.396       .  A
C285        H288   1.084       .  S
C286        C289   1.442       .  S
C289        N291   1.157       .  T
C290        N292   1.157       .  T
C293        C294   1.404       .  A
C293        C298   1.408       .  A
C294        C295   1.402       .  A
C294        H299   1.085       .  S
C295        C296   1.408       .  A
C295        C302   1.443       .  S
C296        C297   1.402       .  A
C296        N629   1.431   1_554  S
C297        C298   1.397       .  A
C297        H300   1.084       .  S
C298        C301   1.444       .  S
C301        N303   1.157       .  T
C302        N740   1.157       .  T
N304        C738   1.157       .  T
C305        C306   1.416       .  A
C305        C310   1.425       .  A
C306        C307   1.400       .  A
C306        H311   1.083       .  S
C307        C308   1.403       .  A
C307        C314   1.442       .  S
C308        C309   1.379       .  A
C309        C310   1.366       .  A
C309        H312   1.088       .  S
C310        C313   1.458       .  S
C313        N315   1.158       .  T
C314        N316   1.157       .  T
C317        C318   1.395       .  A
C317       C1194   1.409       .  A
C318        C319   1.395       .  A
C318        H323   1.084   1_565  S
C319       C1192   1.420       .  A
C319        C326   1.445   1_565  S
C320        C321   1.401       .  A
C320       C1191   1.420       .  A
C321        C322   1.397       .  A
C321        H324   1.084       .  S
C322       C1189   1.411       .  A
C322        C325   1.443       .  S
C325        N327   1.157       .  T
C326        N328   1.157       .  T
C329        C766   1.401   1_564  A
C329       C1642   1.410   1_554  A
C330        C331   1.397       .  A
C330        C765   1.401       .  A
C330        H771   1.084       .  S
C331        C332   1.410   1_545  A
C331        C338   1.445       .  S
C332       C1205   1.405       .  A
C333        C334   1.409       .  A
C333       C1204   1.407       .  A
C333        H336   1.085       .  S
C334       C1637   1.411       .  A
C334        C773   1.442       .  S
H335        C766   1.084   1_554  S
C337        C770   1.442   1_554  S
C337        N339   1.157       .  T
C338        N340   1.157       .  T
C341        C342   1.407       .  A
C341        C346   1.419       .  A
C342        C343   1.397       .  A
C342        H347   1.084       .  S
C343        C344   1.409   1_655  A
C343        C350   1.445   1_655  S
C344        C345   1.398   1_455  A
C345        C346   1.394       .  A
C345        H348   1.086   1_655  S
C346        C349   1.446       .  S
C349        N351   1.158       .  T
C350        N352   1.157       .  T
C353        C358   1.418       .  A
C353       C1226   1.405       .  A
C354        C355   1.396       .  A
C354       C1225   1.401   1_545  A
C354        H359   1.085       .  S
C355       C1228   1.416   1_545  A
C355        C362   1.446       .  S
C356        C357   1.401       .  A
C356       C1227   1.414       .  A
C357        C358   1.397       .  A
C357        H360   1.085       .  S
C358        C361   1.445       .  S
C361        N363   1.157       .  T
C362        N364   1.158       .  T
C365        C366   1.399       .  A
C365        C370   1.403       .  A
C366        C367   1.390       .  A
C366        H371   1.084       .  S
C367        C368   1.405       .  A
C367        C374   1.443       .  S
C368        C369   1.399       .  A
C369        C370   1.393       .  A
C369        H372   1.085       .  S
C370        C373   1.442       .  S
C373        N375   1.157       .  T
C374        N376   1.156       .  T
C377        C378   1.387       .  A
C377        C382   1.419       .  A
C378        C379   1.370       .  A
C378        H383   1.085       .  S
C379        C380   1.405       .  A
C379        C386   1.453       .  S
C380        C381   1.418       .  A
C381        C382   1.418       .  A
C381        H384   1.083       .  S
C382        C385   1.442       .  S
C385        N387   1.157       .  T
C386        N388   1.155       .  T
C389        C390   1.412       .  A
C389        C394   1.418       .  A
C390        C391   1.416       .  A
C390        H395   1.084       .  S
C391        C828   1.411       .  A
C391        C834   1.440       .  S
C392        C827   1.412   1_554  A
C392        C829   1.401   1_554  A
C393        C394   1.389       .  A
C393        C828   1.402       .  A
C393        H832   1.086       .  S
C394        C397   1.444       .  S
H396        C829   1.086   1_554  S
C397        N399   1.158       .  T
C398        C827   1.441   1_554  S
C398        N400   1.157       .  T
C401        C402   1.402       .  A
C401        C406   1.402       .  A
C402        C403   1.388       .  A
C402        H407   1.085       .  S
C403        C404   1.403       .  A
C403        C410   1.443       .  S
C404        C405   1.397       .  A
C405        C406   1.385       .  A
C405        H408   1.085       .  S
C406        C409   1.443       .  S
C409        N411   1.157       .  T
C410        N412   1.157       .  T
C413        C414   1.398       .  A
C413       C1290   1.407   1_545  A
C414        C415   1.393       .  A
C414        H419   1.084       .  S
C415       C1288   1.417   1_545  A
C415        C422   1.445       .  S
C416        C417   1.404       .  A
C416       C1287   1.418       .  A
C417        C418   1.395       .  A
C417        H420   1.085       .  S
C418       C1285   1.405       .  A
C418        C421   1.443       .  S
C421        N423   1.157       .  T
C422        N424   1.157       .  T
C425        C426   1.409       .  A
C425       C1302   1.408   1_545  A
C425        N450   1.438   1_554  S
C426        C427   1.399       .  A
C426        H431   1.085       .  S
C427        C428   1.406       .  A
C427        C434   1.444       .  S
C428       C1301   1.406   1_545  A
C429        C430   1.399       .  A
C429       C1300   1.400       .  A
C429        H432   1.078       .  S
C430       C1297   1.408       .  A
C430        C433   1.443       .  S
C433        N871   1.157   1_554  T
C434        N436   1.157       .  T
N435        C869   1.157       .  T
C437        C439   1.564       .  S
C437        C441   1.553       .  S
C437        C440   1.502       .  S
C437        C837   1.505       .  S
C438        C442   1.576       .  S
C438        C444   1.570       .  S
C438        C443   1.539       .  S
C438        C849   1.517       .  S
C439        C447   1.400       .  A
C439        C442   1.391       .  A
C440        C451   1.357       .  A
C440        C443   1.370       .  A
C441        C455   1.404       .  A
C441        C444   1.388       .  A
C442        C445   1.408       .  A
C443        C449   1.399       .  A
C444       C1324   1.395       .  A
C445        N446   1.367       .  A
C445        H458   1.080       .  S
N446        C447   1.361       .  A
N446        C569   1.463       .  S
C447        H448   1.078       .  S
C449        N450   1.368       .  A
C449       H1331   1.082   1_545  S
N450        C451   1.345       .  A
C451        H457   1.084       .  S
C452       C1316   1.391       .  A
C452        N453   1.361       .  A
C452        H454   1.080       .  S
N453       C1327   1.361       .  A
N453        C528   1.457       .  S
C455       N1325   1.358       .  A
C455        H456   1.081       .  S
H459       C1321   1.082       .  S
O460        C475   1.235       .  A
O460       Al468   1.783       .  S
C461        O471   1.271       .  A
C461        O462   1.282       .  A
C461        C813   1.479       .  S
O462       Al464   1.939       .  S
O463        C465   1.254       .  A
O463       Al464   1.873       .  S
Al464       O472   1.856       .  S
Al464       O474   1.934       .  S
Al464       O473   1.724       .  S
C465        O478   1.255       .  A
C465        C565   1.470       .  S
O466        C476   1.234       .  A
O466       Al468   1.806       .  S
O467        C480   1.273       .  A
O467       Al477   1.921       .  S
Al468       O481   1.963       .  S
Al468       O478   1.936       .  S
Al468       O473   1.756       .  S
O469        C476   1.286       .  A
O469       Al477   2.061       .  S
O470        C479   1.276       .  A
O470       Al477   2.033       .  S
O471       Al477   1.883       .  S
O472        C479   1.246       .  A
O473       Al477   1.803       .  S
O474        C475   1.275       .  A
C475        C840   1.429       .  S
C476        C546   1.471       .  S
C479        C532   1.501       .  S
C480        O481   1.277       .  A
C480        C825   1.498       .  S
C482        C484   1.530       .  S
C482        C486   1.579       .  S
C482        C485   1.532       .  S
C482        C801   1.515       .  S
C483        C487   1.586       .  S
C483        C489   1.562       .  S
C483        C488   1.544       .  S
C483        C816   1.509       .  S
C484        C492   1.391       .  A
C484        C487   1.378       .  A
C485        C496   1.357       .  A
C485        C488   1.390       .  A
C486        C500   1.416       .  A
C486        C489   1.380       .  A
C487        C490   1.407       .  A
C488        C494   1.407       .  A
C489        C497   1.398       .  A
C490        N491   1.372       .  A
C490        H503   1.082       .  S
N491        C492   1.351       .  A
N491        C547   1.459       .  S
C492        H493   1.074       .  S
C494        N495   1.368       .  A
C494        H504   1.082       .  S
N495        C496   1.348       .  A
N495        C828   1.447       .  S
C496        H502   1.084       .  S
C497        N498   1.350       .  A
C497        H499   1.080       .  S
N498        C500   1.365       .  A
N498        C550   1.467       .  S
C500        H501   1.075       .  S
O505        C520   1.237       .  A
O505      Al1385   1.770       .  S
C506       O1388   1.255       .  A
C506        O507   1.268       .  A
C506        C852   1.466       .  S
O507       Al509   1.932       .  S
O508       C1382   1.244       .  A
O508       Al509   1.878       .  S
Al509       O517   1.856       .  S
Al509       O519   1.980       .  S
Al509       O518   1.736       .  S
C510       O1380   1.246       .  A
C510        O523   1.279       .  A
C510        C543   1.491       .  S
O511        C521   1.248       .  A
O511       Al513   1.774       .  S
O512       C1397   1.263       .  A
O512       Al522   1.890       .  S
Al513      O1377   1.785       .  S
Al513       O526   1.966       .  S
Al513       O523   2.050       .  S
Al513      O1390   1.781       .  S
O514        C521   1.283       .  A
O514      Al1394   2.005       .  S
O515        C524   1.283       .  A
O515       Al522   2.016       .  S
O516       C1378   1.255   1_545  A
O516      Al1394   1.850       .  S
O517        C524   1.254       .  A
O518      Al1385   1.784       .  S
O518       Al522   1.756       .  S
O519        C520   1.284       .  A
C520        C804   1.420       .  S
C521        C568   1.431       .  S
Al522      O1386   2.011       .  S
Al522      O1388   1.850       .  S
C524        C554   1.489       .  S
C525       O1384   1.261       .  A
C525        O526   1.276       .  A
C525        C864   1.475       .  S
O527        C542   1.256       .  A
O527      Al1407   1.874       .  S
C528        O538   1.264       .  A
C528        O529   1.293       .  A
O529       Al531   2.026       .  S
O530        C532   1.249       .  A
O530      Al1403   1.846   1_545  S
Al531      O1402   1.849       .  S
Al531       O539   1.945       .  S
Al531       O541   1.913       .  S
Al531       O540   1.791       .  S
C532        O545   1.291       .  A
O533        C543   1.271       .  A
O533       Al535   1.987       .  S
O534        C547   1.264       .  A
O534       Al544   1.903       .  S
Al535      O1399   1.880       .  S
Al535      O1420   2.042   1_545  S
Al535       O545   2.029       .  S
Al535      O1412   1.765   1_545  S
O536       C1415   1.256       .  A
O536       Al544   1.887       .  S
O537        C546   1.257       .  A
O537       Al544   1.876       .  S
O538       Al544   1.876       .  S
O539        C546   1.246       .  A
O540      Al1407   1.767       .  S
O540       Al544   1.772       .  S
O541        C542   1.266       .  A
C542        C789   1.488       .  S
C543       O1408   1.254   1_545  A
C547        O548   1.296       .  A
O548      Al1407   2.039       .  S
O549        C564   1.270       .  A
O549       Al557   1.925       .  S
C550        O560   1.276       .  A
C550        O551   1.265       .  A
O551       Al553   1.940       .  S
O552        C554   1.257       .  A
O552       Al553   1.920       .  S
Al553       O561   1.950       .  S
Al553       O563   1.861       .  S
Al553       O562   1.794       .  S
C554        O567   1.281       .  A
O555        C565   1.271       .  A
O555       Al557   1.973       .  S
O556        C569   1.260       .  A
O556       Al566   1.932       .  S
Al557       O570   1.990       .  S
Al557       O567   1.960       .  S
Al557       O562   1.769       .  S
O558        C565   1.253       .  A
O558       Al566   1.840       .  S
O559        C568   1.245       .  A
O559       Al566   1.854       .  S
O560       Al566   1.979       .  S
O561        C568   1.268       .  A
O562       Al566   1.748       .  S
O563        C564   1.259       .  A
C564        C777   1.479       .  S
C569        O570   1.278       .  A
C571        C573   1.555       .  S
C571        C575   1.548       .  S
C571        C574   1.515       .  S
C571        C741   1.491       .  S
C572        C576   1.568   1_565  S
C572        C578   1.572       .  S
C572        C577   1.551   1_565  S
C572        C753   1.523       .  S
C573        C581   1.399       .  A
C573        C576   1.376       .  A
C574        C585   1.366       .  A
C574        C577   1.390       .  A
C575        C589   1.389   1_545  A
C575        C578   1.374   1_545  A
C576        C579   1.405       .  A
C577        C583   1.386   1_545  A
C578       C1458   1.407       .  A
C579        N580   1.372       .  A
C579        H592   1.079       .  S
N580        C581   1.360       .  A
N580        C681   1.460       .  S
C581        H582   1.082       .  S
C583        N584   1.362   1_565  A
C583       H1465   1.082       .  S
N584        C585   1.355       .  A
N584        C765   1.435       .  S
C585        H591   1.083       .  S
C586       C1450   1.412       .  A
C586        N587   1.371       .  A
C586        H588   1.079       .  S
N587       C1461   1.345       .  A
N587        C684   1.460       .  S
C589       N1459   1.346       .  A
C589        H590   1.082       .  S
H593       C1455   1.082       .  S
O594        C609   1.238       .  A
O594       Al602   1.784       .  S
C595        O605   1.249       .  A
C595        O596   1.271       .  A
C595        C720   1.471       .  S
O596       Al598   1.962       .  S
O597        C599   1.244       .  A
O597       Al598   1.878       .  S
Al598       O606   1.865       .  S
Al598       O608   1.995       .  S
Al598       O607   1.724       .  S
C599        O612   1.274       .  A
C599        C677   1.469       .  S
O600        C610   1.243       .  A
O600       Al602   1.729       .  S
O601        C614   1.267       .  A
O601       Al611   1.905       .  S
Al602       O615   1.935       .  S
Al602       O612   2.023       .  S
Al602       O607   1.797       .  S
O603        C610   1.291       .  A
O603       Al611   2.040       .  S
O604        C613   1.292       .  A
O604       Al611   2.069       .  S
O605       Al611   1.834       .  S
O606        C613   1.254       .  A
O607       Al611   1.751       .  S
O608        C609   1.293       .  A
C609        C744   1.439       .  S
C610        C702   1.453       .  S
C613        C688   1.521       .  S
C614        O615   1.271       .  A
C614        C729   1.470       .  S
C616        C618   1.557       .  S
C616        C620   1.545       .  S
C616        C619   1.513       .  S
C616        C708   1.494       .  S
C617        C621   1.562       .  S
C617        C623   1.568       .  S
C617        C622   1.550       .  S
C617        C717   1.525       .  S
C618        C626   1.399       .  A
C618        C621   1.378       .  A
C619        C630   1.363       .  A
C619        C622   1.392       .  A
C620        C634   1.385       .  A
C620        C623   1.373       .  A
C621        C624   1.399       .  A
C622        C628   1.386       .  A
C623        C631   1.404       .  A
C624        N625   1.368       .  A
C624        H637   1.078       .  S
N625        C626   1.361       .  A
N625        C703   1.454       .  S
C626        H627   1.082       .  S
C628        N629   1.361       .  A
C628        H638   1.082       .  S
N629        C630   1.353       .  A
C630        H636   1.083       .  S
C631        N632   1.365       .  A
C631        H633   1.079       .  S
N632        C634   1.346       .  A
N632        C662   1.450       .  S
C634        H635   1.082       .  S
O639        C654   1.238       .  A
O639      Al1519   1.783       .  S
C640       O1522   1.248       .  A
C640        O641   1.272       .  A
C640        C756   1.469       .  S
O641       Al643   1.966       .  S
O642       C1516   1.244       .  A
O642       Al643   1.878       .  S
Al643       O651   1.861       .  S
Al643       O653   2.000       .  S
Al643       O652   1.721       .  S
C644       O1514   1.244   1_545  A
C644        O657   1.273       .  A
C644        C699   1.468   1_545  S
O645        C655   1.244       .  A
O645       Al647   1.733       .  S
O646       C1531   1.270       .  A
O646       Al656   1.917       .  S
Al647      O1511   1.784   1_545  S
Al647       O660   1.929       .  S
Al647       O657   2.021       .  S
Al647      O1524   1.792   1_545  S
O648        C655   1.292       .  A
O648      Al1528   2.047   1_545  S
O649        C658   1.293       .  A
O649       Al656   2.076       .  S
O650       C1512   1.251       .  A
O650      Al1528   1.839       .  S
O651        C658   1.252       .  A
O652      Al1519   1.793       .  S
O652       Al656   1.753       .  S
O653        C654   1.294       .  A
C654        C705   1.443       .  S
C655        C680   1.458       .  S
Al656      O1520   2.040       .  S
Al656      O1522   1.833       .  S
C658        C666   1.525       .  S
C659       O1518   1.270       .  A
C659        O660   1.272   1_565  A
C659        C768   1.476       .  S
O661        C676   1.258       .  A
O661       Al669   1.861       .  S
C662        O672   1.266       .  A
C662        O663   1.285       .  A
O663       Al665   1.990       .  S
O664        C666   1.261       .  A
O664       Al665   1.895       .  S
Al665       O673   1.954       .  S
Al665       O675   1.910       .  S
Al665       O674   1.789       .  S
C666        O679   1.292       .  A
O667        C677   1.267       .  A
O667       Al669   1.954       .  S
O668        C681   1.250       .  A
O668       Al678   1.864       .  S
Al669       O682   2.072       .  S
Al669       O679   2.048       .  S
Al669       O674   1.775       .  S
O670        C677   1.256       .  A
O670       Al678   1.884       .  S
O671        C680   1.255       .  A
O671       Al678   1.822       .  S
O672       Al678   1.893       .  S
O673        C680   1.254       .  A
O674       Al678   1.765       .  S
O675        C676   1.264       .  A
C676        C780   1.467       .  S
C681        O682   1.295       .  A
O683        C698   1.257       .  A
O683      Al1563   1.864       .  S
C684        O694   1.265       .  A
C684        O685   1.290       .  A
O685       Al687   2.010       .  S
O686        C688   1.260       .  A
O686      Al1559   1.895   1_545  S
Al687      O1558   1.893       .  S
Al687       O695   1.945       .  S
Al687       O697   1.935       .  S
Al687       O696   1.786       .  S
C688        O701   1.290       .  A
O689        C699   1.269   1_545  A
O689       Al691   1.956       .  S
O690        C703   1.249       .  A
O690       Al700   1.861       .  S
Al691      O1555   1.881   1_545  S
Al691      O1576   2.060   1_545  S
Al691       O701   2.041       .  S
Al691      O1568   1.780   1_545  S
O692       C1571   1.256       .  A
O692       Al700   1.880       .  S
O693        C702   1.254       .  A
O693       Al700   1.821       .  S
O694       Al700   1.899       .  S
O695        C702   1.251       .  A
O696      Al1563   1.778       .  S
O696       Al700   1.766       .  S
O697        C698   1.271       .  A
C698        C792   1.489       .  S
C699       O1564   1.256       .  A
C703        O704   1.292       .  A
O704      Al1563   2.061       .  S
C705        C706   1.379       .  A
C705        C710   1.402       .  A
C706        C707   1.367       .  A
C706        H711   1.088       .  S
C707        C708   1.425       .  A
C707        C714   1.455       .  S
C708        C709   1.416       .  A
C709        C710   1.399       .  A
C709        H712   1.083       .  S
C710        C713   1.442       .  S
C713        N715   1.157       .  T
C714        N716   1.158       .  T
C717        C718   1.394       .  A
C717        C722   1.411       .  A
C718        C719   1.395       .  A
C718        H723   1.084       .  S
C719        C720   1.421       .  A
C719        C726   1.445       .  S
C720        C721   1.403       .  A
C721        C722   1.398       .  A
C721        H724   1.084       .  S
C722        C725   1.443       .  S
C725        N727   1.157       .  T
C726        N728   1.157       .  T
C729        C730   1.404       .  A
C729        C734   1.409       .  A
C730        C731   1.401       .  A
C730        H735   1.085       .  S
C731        C732   1.407       .  A
C731        C738   1.442       .  S
C732        C733   1.401       .  A
C733        C734   1.397       .  A
C733        H736   1.084       .  S
C734        C737   1.444       .  S
C737        N739   1.157       .  T
C741        C742   1.416       .  A
C741        C746   1.424       .  A
C742        C743   1.401       .  A
C742        H747   1.083       .  S
C743        C744   1.403       .  A
C743        C750   1.442       .  S
C744        C745   1.379       .  A
C745        C746   1.365       .  A
C745        H748   1.088       .  S
C746        C749   1.459       .  S
C749        N751   1.158       .  T
C750        N752   1.157       .  T
C753        C754   1.395       .  A
C753       C1630   1.409       .  A
C754        C755   1.395       .  A
C754        H759   1.084   1_565  S
C755       C1628   1.420       .  A
C755        C762   1.445   1_565  S
C756       C1627   1.422       .  A
C756        C757   1.402       .  A
C757        C758   1.396       .  A
C757        H760   1.084       .  S
C758       C1625   1.408       .  A
C758        C761   1.442       .  S
C761        N763   1.157       .  T
C762        N764   1.157       .  T
C765       C1206   1.410   1_545  A
C766        C767   1.396       .  A
C767        C768   1.409   1_545  A
C767        C774   1.445       .  S
C768       C1641   1.406       .  A
C769       C1640   1.404       .  A
C769        C770   1.405       .  A
C769        H772   1.085       .  S
C770       C1201   1.410   1_556  A
C773        N775   1.157       .  T
C774        N776   1.157       .  T
C777        C778   1.407       .  A
C777        C782   1.418       .  A
C778        C779   1.397       .  A
C778        H783   1.084       .  S
C779        C780   1.410   1_655  A
C779        C786   1.445   1_655  S
C780        C781   1.399   1_455  A
C781        C782   1.390       .  A
C781        H784   1.086   1_655  S
C782        C785   1.446       .  S
C785        N787   1.157       .  T
C786        N788   1.157       .  T
C789       C1662   1.402       .  A
C789        C794   1.420       .  A
C790       C1661   1.406       .  A
C790        C791   1.401       .  A
C790        H795   1.085       .  S
C791       C1664   1.414       .  A
C791        C798   1.445       .  S
C792       C1663   1.421       .  A
C792        C793   1.404       .  A
C793        C794   1.400       .  A
C793        H796   1.085       .  S
C794        C797   1.445       .  S
C797        N799   1.158       .  T
C798        N800   1.158       .  T
C801        C802   1.399       .  A
C801        C806   1.405       .  A
C802        C803   1.388       .  A
C802        H807   1.084       .  S
C803        C804   1.404       .  A
C803        C810   1.444       .  S
C804        C805   1.397       .  A
C805        C806   1.390       .  A
C805        H808   1.085       .  S
C806        C809   1.442       .  S
C809        N811   1.157       .  T
C810        N812   1.157       .  T
C813        C814   1.391       .  A
C813        C818   1.419       .  A
C814        C815   1.372       .  A
C814        H819   1.085       .  S
C815        C816   1.407       .  A
C815        C822   1.452       .  S
C816        C817   1.419       .  A
C817        C818   1.416       .  A
C817        H820   1.084       .  S
C818        C821   1.441       .  S
C821        N823   1.157       .  T
C822        N824   1.154       .  T
C825        C826   1.412       .  A
C825        C830   1.417       .  A
C826        C827   1.416       .  A
C826        H831   1.084       .  S
C829        C830   1.392       .  A
C830        C833   1.442       .  S
C833        N835   1.157       .  T
C834        N836   1.157       .  T
C837        C838   1.399       .  A
C837        C842   1.400       .  A
C838        C839   1.387       .  A
C838        H843   1.085       .  S
C839        C840   1.406       .  A
C839        C846   1.445       .  S
C840        C841   1.397       .  A
C841        C842   1.384       .  A
C841        H844   1.085       .  S
C842        C845   1.443       .  S
C845        N847   1.157       .  T
C846        N848   1.157       .  T
C849        C850   1.397       .  A
C849       C1726   1.407   1_545  A
C850        C851   1.392       .  A
C850        H855   1.084       .  S
C851       C1724   1.416   1_545  A
C851        C858   1.445       .  S
C852       C1723   1.417       .  A
C852        C853   1.404       .  A
C853        C854   1.394       .  A
C853        H856   1.085       .  S
C854       C1721   1.405       .  A
C854        C857   1.444       .  S
C857        N859   1.157       .  T
C858        N860   1.157       .  T
C861        C862   1.408       .  A
C861       C1738   1.407   1_545  A
C862        C863   1.399       .  A
C862        H867   1.084       .  S
C863        C864   1.405       .  A
C863        C870   1.444       .  S
C864       C1737   1.402   1_545  A
C865       C1736   1.404       .  A
C865        C866   1.402       .  A
C865        H868   1.080       .  S
C866       C1733   1.408       .  A
C866        C869   1.442       .  S
C870        N872   1.157       .  T
C873        C875   1.557       .  S
C873        C877   1.555       .  S
C873        C876   1.505       .  S
C873       C1273   1.502       .  S
C874        C878   1.572       .  S
C874        C880   1.567       .  S
C874        C879   1.537       .  S
C874       C1285   1.522       .  S
C875        C883   1.397       .  A
C875        C878   1.387       .  A
C876        C887   1.357       .  A
C876        C879   1.374       .  A
C877        C891   1.403       .  A
C877        C880   1.393       .  A
C878        C881   1.402       .  A
C879        C885   1.394       .  A
C881        N882   1.362       .  A
C881        H894   1.078       .  S
N882        C883   1.362       .  A
N882       C1005   1.454       .  S
C883        H884   1.081       .  S
C885        N886   1.366       .  A
N886        C887   1.347       .  A
N886       C1733   1.436       .  S
C887        H893   1.084       .  S
C888        N889   1.359       .  A
C888        H890   1.079   1_545  S
N889        C964   1.452   1_545  S
C891        H892   1.081       .  S
O896        C911   1.239       .  A
O896       Al904   1.801       .  S
C897        O907   1.273       .  A
C897        O898   1.285       .  A
C897       C1249   1.472       .  S
O898       Al900   1.943       .  S
O899        C901   1.254       .  A
O899       Al900   1.882       .  S
Al900       O908   1.862       .  S
Al900       O910   1.933       .  S
Al900       O909   1.723       .  S
C901        O914   1.252       .  A
C901       C1001   1.471       .  S
O902        C912   1.234       .  A
O902       Al904   1.822       .  S
O903        C916   1.275       .  A
O903       Al913   1.920       .  S
Al904       O917   1.958       .  S
Al904       O914   1.921       .  S
Al904       O909   1.756       .  S
O905        C912   1.283       .  A
O905       Al913   2.058       .  S
O906        C915   1.270       .  A
O906       Al913   2.018       .  S
O907       Al913   1.870       .  S
O908        C915   1.246       .  A
O909       Al913   1.810       .  S
O910        C911   1.277       .  A
C911       C1276   1.441       .  S
C912        C982   1.471       .  S
C915        C968   1.502       .  S
C916        O917   1.277       .  A
C916       C1261   1.494       .  S
C918        C920   1.529       .  S
C918        C922   1.582       .  S
C918        C921   1.533       .  S
C918       C1237   1.515       .  S
C919        C923   1.585       .  S
C919        C925   1.560       .  S
C919        C924   1.543       .  S
C919       C1252   1.508       .  S
C920        C928   1.391       .  A
C920        C923   1.377       .  A
C921        C932   1.357       .  A
C921        C924   1.392       .  A
C922        C936   1.420       .  A
C922        C925   1.376       .  A
C923        C926   1.406       .  A
C924        C930   1.406       .  A
C925        C933   1.396       .  A
C926        N927   1.372       .  A
C926        H939   1.082       .  S
N927        C928   1.351       .  A
N927        C983   1.457       .  S
C928        H929   1.075       .  S
C930        N931   1.368       .  A
C930        H940   1.082       .  S
N931        C932   1.346       .  A
N931       C1264   1.445       .  S
C932        H938   1.084       .  S
C933        N934   1.349       .  A
C933        H935   1.080       .  S
N934        C936   1.370       .  A
N934        C986   1.470       .  S
C936        H937   1.077       .  S
O941        C956   1.236   1_545  A
C942        O943   1.270       .  A
C942       C1288   1.470       .  S
O943       Al945   1.945       .  S
O944       Al945   1.877   1_545  S
Al945       O953   1.854       .  S
Al945       O955   1.978       .  S
Al945       O954   1.738   1_565  S
C946        O959   1.278       .  A
C946        C979   1.490       .  S
O947        C957   1.249       .  A
O947       Al949   1.775       .  S
O948       Al958   1.890   1_565  S
Al949       O962   1.959       .  S
Al949       O959   2.049       .  S
O950        C957   1.284       .  A
O951        C960   1.281       .  A
O951       Al958   2.010   1_565  S
O953        C960   1.252       .  A
O954       Al958   1.757       .  S
O955        C956   1.283       .  A
C956       C1240   1.424       .  S
C957       C1004   1.432       .  S
C960        C990   1.480       .  S
C961        O962   1.274       .  A
C961       C1300   1.470       .  S
O963        C978   1.258       .  A
C964        O974   1.265       .  A
C964        O965   1.292       .  A
O965       Al967   2.015       .  S
O966        C968   1.250       .  A
Al967       O975   1.949       .  S
Al967       O977   1.904   1_565  S
Al967       O976   1.792       .  S
C968        O981   1.291       .  A
O969        C979   1.269       .  A
O969       Al971   1.982       .  S
O970        C983   1.263       .  A
O970       Al980   1.899       .  S
Al971       O981   2.028       .  S
O972       Al980   1.889       .  S
O973        C982   1.256       .  A
O973       Al980   1.873       .  S
O974       Al980   1.876       .  S
O975        C982   1.247       .  A
O976       Al980   1.773       .  S
O977        C978   1.263       .  A
C978       C1225   1.475   1_545  S
C983        O984   1.297       .  A
O985       C1000   1.271       .  A
O985       Al993   1.929       .  S
C986        O996   1.278       .  A
C986        O987   1.266       .  A
O987       Al989   1.948       .  S
O988        C990   1.255       .  A
O988       Al989   1.913       .  S
Al989       O997   1.952       .  S
Al989       O999   1.872       .  S
Al989       O998   1.799       .  S
C990       O1003   1.278       .  A
O991       C1001   1.271       .  A
O991       Al993   1.968       .  S
O992       C1005   1.257       .  A
O992      Al1002   1.919       .  S
Al993      O1006   1.976       .  S
Al993      O1003   1.950       .  S
Al993       O998   1.768       .  S
O994       C1001   1.255       .  A
O994      Al1002   1.840       .  S
O995       C1004   1.243       .  A
O995      Al1002   1.856       .  S
O996      Al1002   1.981       .  S
O997       C1004   1.266       .  A
O998      Al1002   1.749       .  S
O999       C1000   1.262       .  A
C1000      C1213   1.485       .  S
C1005      O1006   1.275       .  A
C1007      C1009   1.555       .  S
C1007      C1011   1.549       .  S
C1007      C1010   1.514       .  S
C1007      C1177   1.489       .  S
C1008      C1012   1.570       .  S
C1008      C1014   1.572       .  S
C1008      C1013   1.555       .  S
C1008      C1189   1.523       .  S
C1009      C1017   1.399       .  A
C1009      C1012   1.376       .  A
C1010      C1021   1.366       .  A
C1010      C1013   1.390       .  A
C1011      C1025   1.390       .  A
C1011      C1014   1.372       .  A
C1012      C1015   1.407       .  A
C1013      C1019   1.389       .  A
C1015      N1016   1.373       .  A
C1015      H1028   1.079       .  S
N1016      C1017   1.359       .  A
N1016      C1117   1.461       .  S
C1017      H1018   1.081       .  S
C1019      N1020   1.364       .  A
N1020      C1021   1.354       .  A
N1020      C1201   1.437       .  S
C1021      H1027   1.083       .  S
C1022      N1023   1.368       .  A
C1022      H1024   1.079       .  S
N1023      C1120   1.455       .  S
C1025      H1026   1.082       .  S
O1030      C1045   1.236       .  A
O1030     Al1038   1.770       .  S
C1031      O1041   1.248       .  A
C1031      O1032   1.272       .  A
C1031      C1156   1.469       .  S
O1032     Al1034   1.963       .  S
O1033      C1035   1.245       .  A
O1033     Al1034   1.883       .  S
Al1034     O1042   1.862       .  S
Al1034     O1044   1.998       .  S
Al1034     O1043   1.725       .  S
C1035      O1048   1.274       .  A
C1035      C1113   1.473       .  S
O1036      C1046   1.242       .  A
O1036     Al1038   1.719       .  S
O1037      C1050   1.267       .  A
O1037     Al1047   1.909       .  S
Al1038     O1051   1.936       .  S
Al1038     O1048   2.026       .  S
Al1038     O1043   1.796       .  S
O1039      C1046   1.292       .  A
O1039     Al1047   2.044       .  S
O1040      C1049   1.292       .  A
O1040     Al1047   2.067       .  S
O1041     Al1047   1.832       .  S
O1042      C1049   1.253       .  A
O1043     Al1047   1.753       .  S
O1044      C1045   1.293       .  A
C1045      C1180   1.435       .  S
C1046      C1138   1.454       .  S
C1049      C1124   1.518       .  S
C1050      O1051   1.272       .  A
C1050      C1165   1.475       .  S
C1052      C1054   1.556       .  S
C1052      C1056   1.549       .  S
C1052      C1055   1.516       .  S
C1052      C1144   1.495       .  S
C1053      C1057   1.560       .  S
C1053      C1059   1.571       .  S
C1053      C1058   1.545       .  S
C1053      C1153   1.524       .  S
C1054      C1062   1.399       .  A
C1054      C1057   1.378       .  A
C1055      C1066   1.366       .  A
C1055      C1058   1.390       .  A
C1056      C1070   1.387       .  A
C1056      C1059   1.376       .  A
C1057      C1060   1.397       .  A
C1058      C1064   1.383       .  A
C1059      C1067   1.407       .  A
C1060      N1061   1.366       .  A
C1060      H1073   1.076       .  S
N1061      C1062   1.362       .  A
N1061      C1139   1.453       .  S
C1062      H1063   1.082       .  S
C1064      N1065   1.359       .  A
C1064      H1074   1.082       .  S
N1065      C1066   1.354       .  A
N1065      C1604   1.430       .  S
C1066      H1072   1.083       .  S
C1067      N1068   1.367       .  A
C1067      H1069   1.079       .  S
N1068      C1070   1.346       .  A
N1068      C1098   1.455       .  S
C1070      H1071   1.082       .  S
O1075      C1090   1.237       .  A
C1076      O1077   1.272       .  A
C1076      C1192   1.469       .  S
O1077     Al1079   1.962       .  S
O1078     Al1079   1.875       .  S
Al1079     O1087   1.859       .  S
Al1079     O1089   1.994       .  S
Al1079     O1088   1.719       .  S
C1080      O1093   1.272       .  A
C1080      C1135   1.464       .  S
O1081      C1091   1.244       .  A
O1081     Al1083   1.738       .  S
O1082     Al1092   1.917       .  S
Al1083     O1096   1.926       .  S
Al1083     O1093   2.012       .  S
O1084      C1091   1.293       .  A
O1085      C1094   1.291       .  A
O1085     Al1092   2.069       .  S
O1087      C1094   1.251       .  A
O1088     Al1092   1.756       .  S
O1089      C1090   1.292       .  A
C1090      C1141   1.444       .  S
C1091      C1116   1.460       .  S
C1094      C1102   1.520       .  S
C1095      O1096   1.271       .  A
C1095      C1204   1.481       .  S
O1097      C1112   1.259       .  A
O1097     Al1105   1.866       .  S
C1098      O1108   1.266       .  A
C1098      O1099   1.287       .  A
O1099     Al1101   2.001       .  S
O1100      C1102   1.260       .  A
O1100     Al1101   1.889       .  S
Al1101     O1109   1.953       .  S
Al1101     O1111   1.919       .  S
Al1101     O1110   1.788       .  S
C1102      O1115   1.291       .  A
O1103      C1113   1.268       .  A
O1103     Al1105   1.960       .  S
O1104      C1117   1.250       .  A
O1104     Al1114   1.868       .  S
Al1105     O1118   2.071       .  S
Al1105     O1115   2.045       .  S
Al1105     O1110   1.774       .  S
O1106      C1113   1.256       .  A
O1106     Al1114   1.887       .  S
O1107      C1116   1.256       .  A
O1107     Al1114   1.827       .  S
O1108     Al1114   1.898       .  S
O1109      C1116   1.254       .  A
O1110     Al1114   1.766       .  S
O1111      C1112   1.265       .  A
C1112      C1216   1.470       .  S
C1117      O1118   1.296       .  A
O1119      C1134   1.260       .  A
C1120      O1130   1.264       .  A
C1120      O1121   1.286       .  A
O1121     Al1123   1.997       .  S
O1122      C1124   1.260       .  A
Al1123     O1131   1.949       .  S
Al1123     O1133   1.920       .  S
Al1123     O1132   1.794       .  S
C1124      O1137   1.289       .  A
O1125      C1135   1.269       .  A
O1125     Al1127   1.954       .  S
O1126      C1139   1.248       .  A
O1126     Al1136   1.856       .  S
Al1127     O1137   2.036       .  S
O1128     Al1136   1.878       .  S
O1129      C1138   1.254       .  A
O1129     Al1136   1.814       .  S
O1130     Al1136   1.894       .  S
O1131      C1138   1.252       .  A
O1132     Al1136   1.764       .  S
O1133      C1134   1.267       .  A
C1134      C1228   1.478       .  S
C1139      O1140   1.290       .  A
C1141      C1142   1.379       .  A
C1141      C1146   1.401       .  A
C1142      C1143   1.368       .  A
C1142      H1147   1.087       .  S
C1143      C1144   1.424       .  A
C1143      C1150   1.456       .  S
C1144      C1145   1.417       .  A
C1145      C1146   1.400       .  A
C1145      H1148   1.083       .  S
C1146      C1149   1.442       .  S
C1149      N1151   1.157       .  T
C1150      N1152   1.158       .  T
C1153      C1154   1.394       .  A
C1153      C1158   1.408       .  A
C1154      C1155   1.395       .  A
C1154      H1159   1.084       .  S
C1155      C1156   1.422       .  A
C1155      C1162   1.446       .  S
C1156      C1157   1.403       .  A
C1157      C1158   1.396       .  A
C1157      H1160   1.084       .  S
C1158      C1161   1.442       .  S
C1161      N1163   1.157       .  T
C1162      N1164   1.157       .  T
C1165      C1166   1.406       .  A
C1165      C1170   1.408       .  A
C1166      C1167   1.405       .  A
C1166      H1171   1.085       .  S
C1167      C1168   1.408       .  A
C1167      C1174   1.442       .  S
C1168      C1169   1.402       .  A
C1168      N1501   1.434   1_554  S
C1169      C1170   1.398       .  A
C1169      H1172   1.084       .  S
C1170      C1173   1.444       .  S
C1173      N1175   1.157       .  T
C1174      N1612   1.157       .  T
N1176      C1610   1.157       .  T
C1177      C1178   1.417       .  A
C1177      C1182   1.425       .  A
C1178      C1179   1.400       .  A
C1178      H1183   1.083       .  S
C1179      C1180   1.403       .  A
C1179      C1186   1.443       .  S
C1180      C1181   1.378       .  A
C1181      C1182   1.363       .  A
C1181      H1184   1.088       .  S
C1182      C1185   1.459       .  S
C1185      N1187   1.158       .  T
C1186      N1188   1.157       .  T
C1189      C1190   1.394       .  A
C1190      C1191   1.394       .  A
C1190      H1195   1.084       .  S
C1191      C1198   1.445       .  S
C1192      C1193   1.402       .  A
C1193      C1194   1.396       .  A
C1193      H1196   1.084       .  S
C1194      C1197   1.442       .  S
C1197      N1199   1.157       .  T
C1198      N1200   1.157       .  T
C1201      C1638   1.403   1_554  A
C1202      C1637   1.402       .  A
C1202      C1203   1.398       .  A
C1202      H1643   1.084       .  S
C1203      C1204   1.412       .  A
C1203      C1210   1.445       .  S
C1205      C1206   1.406       .  A
C1205      H1208   1.085       .  S
C1206      C1645   1.442       .  S
H1207      C1638   1.084   1_554  S
C1209      C1642   1.442   1_554  S
C1209      N1211   1.157       .  T
C1210      N1212   1.157       .  T
C1213      C1214   1.409       .  A
C1213      C1218   1.419       .  A
C1214      C1215   1.400       .  A
C1214      H1219   1.084       .  S
C1215      C1216   1.410   1_655  A
C1215      C1222   1.445   1_655  S
C1216      C1217   1.399   1_455  A
C1217      C1218   1.392       .  A
C1217      H1220   1.086   1_655  S
C1218      C1221   1.445       .  S
C1221      N1223   1.157       .  T
C1222      N1224   1.157       .  T
C1225      C1230   1.414       .  A
C1226      C1227   1.398       .  A
C1226      H1231   1.085       .  S
C1227      C1234   1.445       .  S
C1228      C1229   1.404       .  A
C1229      C1230   1.400       .  A
C1229      H1232   1.085       .  S
C1230      C1233   1.445       .  S
C1233      N1235   1.157       .  T
C1234      N1236   1.157       .  T
C1237      C1238   1.398       .  A
C1237      C1242   1.403       .  A
C1238      C1239   1.388       .  A
C1238      H1243   1.085       .  S
C1239      C1240   1.405       .  A
C1239      C1246   1.443       .  S
C1240      C1241   1.397       .  A
C1241      C1242   1.390       .  A
C1241      H1244   1.085   1_565  S
C1242      C1245   1.443       .  S
C1245      N1247   1.157       .  T
C1246      N1248   1.156       .  T
C1249      C1250   1.389       .  A
C1249      C1254   1.422       .  A
C1250      C1251   1.369       .  A
C1250      H1255   1.085       .  S
C1251      C1252   1.407       .  A
C1251      C1258   1.453       .  S
C1252      C1253   1.416       .  A
C1253      C1254   1.415       .  A
C1253      H1256   1.084       .  S
C1254      C1257   1.442       .  S
C1257      N1259   1.157       .  T
C1258      N1260   1.155       .  T
C1261      C1262   1.414       .  A
C1261      C1266   1.418       .  A
C1262      C1263   1.415       .  A
C1262      H1267   1.084       .  S
C1263      C1700   1.409       .  A
C1263      C1706   1.440       .  S
C1264      C1699   1.410   1_554  A
C1264      C1701   1.402   1_554  A
C1265      C1700   1.402       .  A
C1265      C1266   1.387       .  A
C1265      H1704   1.086       .  S
C1266      C1269   1.445       .  S
H1268      C1701   1.086   1_554  S
C1269      N1271   1.158       .  T
C1270      C1699   1.441   1_554  S
C1270      N1272   1.157       .  T
C1273      C1274   1.403       .  A
C1273      C1278   1.401       .  A
C1274      C1275   1.388       .  A
C1274      H1279   1.085       .  S
C1275      C1276   1.402       .  A
C1275      C1282   1.443       .  S
C1276      C1277   1.398       .  A
C1277      C1278   1.386       .  A
C1277      H1280   1.084       .  S
C1278      C1281   1.442       .  S
C1281      N1283   1.157       .  T
C1282      N1284   1.157       .  T
C1285      C1286   1.399       .  A
C1286      C1287   1.395       .  A
C1286      H1291   1.085       .  S
C1287      C1294   1.446       .  S
C1288      C1289   1.404       .  A
C1289      C1290   1.396       .  A
C1289      H1292   1.084       .  S
C1290      C1293   1.443       .  S
C1293      N1295   1.157       .  T
C1294      N1296   1.158       .  T
C1297      C1298   1.407       .  A
C1297      N1322   1.431   1_554  S
C1298      C1299   1.398       .  A
C1298      H1303   1.085       .  S
C1299      C1300   1.406       .  A
C1299      C1306   1.444       .  S
C1301      C1302   1.405       .  A
C1301      H1304   1.080       .  S
C1302      C1305   1.442       .  S
C1305      N1743   1.157   1_554  T
C1306      N1308   1.157       .  T
N1307      C1741   1.157       .  T
C1309      C1311   1.561       .  S
C1309      C1313   1.560       .  S
C1309      C1312   1.503       .  S
C1309      C1709   1.507       .  S
C1310      C1314   1.574       .  S
C1310      C1316   1.566       .  S
C1310      C1315   1.531       .  S
C1310      C1721   1.516       .  S
C1311      C1319   1.398       .  A
C1311      C1314   1.390       .  A
C1312      C1323   1.357       .  A
C1312      C1315   1.371       .  A
C1313      C1327   1.406       .  A
C1313      C1316   1.390       .  A
C1314      C1317   1.405       .  A
C1315      C1321   1.392       .  A
C1317      N1318   1.364       .  A
C1317      H1330   1.079       .  S
N1318      C1319   1.359       .  A
N1318      C1441   1.458       .  S
C1319      H1320   1.077       .  S
C1321      N1322   1.364       .  A
N1322      C1323   1.346       .  A
C1323      H1329   1.084       .  S
C1324      N1325   1.362       .  A
C1324      H1326   1.080   1_545  S
N1325      C1400   1.456       .  S
C1327      H1328   1.081       .  S
O1332      C1347   1.236       .  A
O1332     Al1340   1.786       .  S
C1333      O1343   1.270       .  A
C1333      O1334   1.282       .  A
C1333      C1685   1.477       .  S
O1334     Al1336   1.938       .  S
O1335      C1337   1.255       .  A
O1335     Al1336   1.879       .  S
Al1336     O1344   1.857       .  S
Al1336     O1346   1.935       .  S
Al1336     O1345   1.723       .  S
C1337      O1350   1.255       .  A
C1337      C1437   1.471       .  S
O1338      C1348   1.235       .  A
O1338     Al1340   1.810       .  S
O1339      C1352   1.272       .  A
O1339     Al1349   1.920       .  S
Al1340     O1353   1.959       .  S
Al1340     O1350   1.935       .  S
Al1340     O1345   1.755       .  S
O1341      C1348   1.286       .  A
O1341     Al1349   2.058       .  S
O1342      C1351   1.276       .  A
O1342     Al1349   2.028       .  S
O1343     Al1349   1.876       .  S
O1344      C1351   1.247       .  A
O1345     Al1349   1.801       .  S
O1346      C1347   1.276       .  A
C1347      C1712   1.428       .  S
C1348      C1418   1.468       .  S
C1351      C1404   1.497       .  S
C1352      O1353   1.276       .  A
C1352      C1697   1.495       .  S
C1354      C1356   1.529       .  S
C1354      C1358   1.580       .  S
C1354      C1357   1.533       .  S
C1354      C1673   1.516       .  S
C1355      C1359   1.583       .  S
C1355      C1361   1.560       .  S
C1355      C1360   1.540       .  S
C1355      C1688   1.508       .  S
C1356      C1364   1.391       .  A
C1356      C1359   1.379       .  A
C1357      C1368   1.355       .  A
C1357      C1360   1.391       .  A
C1358      C1372   1.417       .  A
C1358      C1361   1.377       .  A
C1359      C1362   1.404       .  A
C1360      C1366   1.405       .  A
C1361      C1369   1.398       .  A
C1362      N1363   1.371       .  A
C1362      H1375   1.082       .  S
N1363      C1364   1.352       .  A
N1363      C1419   1.455       .  S
C1364      H1365   1.075       .  S
C1366      N1367   1.367       .  A
C1366      H1376   1.082       .  S
N1367      C1368   1.348       .  A
N1367      C1700   1.446       .  S
C1368      H1374   1.084       .  S
C1369      N1370   1.349       .  A
C1369      H1371   1.080       .  S
N1370      C1372   1.366       .  A
N1370      C1422   1.467       .  S
C1372      H1373   1.075       .  S
O1377      C1392   1.238   1_545  A
C1378      O1379   1.268       .  A
C1378      C1724   1.468       .  S
O1379     Al1381   1.939       .  S
O1380     Al1381   1.880   1_545  S
Al1381     O1389   1.860       .  S
Al1381     O1391   1.979       .  S
Al1381     O1390   1.739   1_565  S
C1382      O1395   1.276       .  A
C1382      C1415   1.485       .  S
O1383      C1393   1.248       .  A
O1383     Al1385   1.768       .  S
O1384     Al1394   1.884       .  S
Al1385     O1398   1.956       .  S
Al1385     O1395   2.042       .  S
O1386      C1393   1.285       .  A
O1387      C1396   1.281       .  A
O1387     Al1394   2.007   1_565  S
O1389      C1396   1.255       .  A
O1390     Al1394   1.757       .  S
O1391      C1392   1.283       .  A
C1392      C1676   1.426       .  S
C1393      C1440   1.430       .  S
C1396      C1426   1.483       .  S
C1397      O1398   1.275       .  A
C1397      C1736   1.474       .  S
O1399      C1414   1.258       .  A
C1400      O1410   1.265   1_545  A
C1400      O1401   1.295   1_545  A
O1401     Al1403   2.029       .  S
O1402      C1404   1.250       .  A
Al1403     O1411   1.943       .  S
Al1403     O1413   1.914   1_565  S
Al1403     O1412   1.790       .  S
C1404      O1417   1.289       .  A
O1405      C1415   1.268       .  A
O1405     Al1407   1.971       .  S
O1406      C1419   1.263       .  A
O1406     Al1416   1.895       .  S
Al1407     O1417   2.024       .  S
O1408     Al1416   1.887       .  S
O1409      C1418   1.255       .  A
O1409     Al1416   1.872       .  S
O1410     Al1416   1.877       .  S
O1411      C1418   1.245       .  A
O1412     Al1416   1.772       .  S
O1413      C1414   1.265       .  A
C1414      C1661   1.488   1_545  S
C1419      O1420   1.297       .  A
O1421      C1436   1.271       .  A
O1421     Al1429   1.926       .  S
C1422      O1432   1.276       .  A
C1422      O1423   1.265       .  A
O1423     Al1425   1.943       .  S
O1424      C1426   1.257       .  A
O1424     Al1425   1.917       .  S
Al1425     O1433   1.954       .  S
Al1425     O1435   1.865       .  S
Al1425     O1434   1.795       .  S
C1426      O1439   1.279       .  A
O1427      C1437   1.273       .  A
O1427     Al1429   1.978       .  S
O1428      C1441   1.259       .  A
O1428     Al1438   1.931       .  S
Al1429     O1442   1.979       .  S
Al1429     O1439   1.951       .  S
Al1429     O1434   1.765       .  S
O1430      C1437   1.254       .  A
O1430     Al1438   1.842       .  S
O1431      C1440   1.244       .  A
O1431     Al1438   1.853       .  S
O1432     Al1438   1.978       .  S
O1433      C1440   1.268       .  A
O1434     Al1438   1.744       .  S
O1435      C1436   1.260       .  A
C1436      C1649   1.481       .  S
C1441      O1442   1.275       .  A
C1443      C1445   1.556       .  S
C1443      C1447   1.548       .  S
C1443      C1446   1.517       .  S
C1443      C1613   1.492       .  S
C1444      C1448   1.565       .  S
C1444      C1450   1.576       .  S
C1444      C1449   1.554       .  S
C1444      C1625   1.524       .  S
C1445      C1453   1.400       .  A
C1445      C1448   1.376       .  A
C1446      C1457   1.368       .  A
C1446      C1449   1.390       .  A
C1447      C1461   1.389       .  A
C1447      C1450   1.373       .  A
C1448      C1451   1.403       .  A
C1449      C1455   1.389       .  A
C1451      N1452   1.370       .  A
C1451      H1464   1.078       .  S
N1452      C1453   1.361       .  A
N1452      C1553   1.458       .  S
C1453      H1454   1.082       .  S
C1455      N1456   1.363       .  A
N1456      C1457   1.356       .  A
N1456      C1637   1.439       .  S
C1457      H1463   1.083       .  S
C1458      N1459   1.368       .  A
C1458      H1460   1.079       .  S
N1459      C1556   1.456       .  S
C1461      H1462   1.082       .  S
O1466      C1481   1.237       .  A
O1466     Al1474   1.787       .  S
C1467      O1477   1.249       .  A
C1467      O1468   1.271       .  A
C1467      C1592   1.470       .  S
O1468     Al1470   1.960       .  S
O1469      C1471   1.246       .  A
O1469     Al1470   1.882       .  S
Al1470     O1478   1.862       .  S
Al1470     O1480   1.990       .  S
Al1470     O1479   1.723       .  S
C1471      O1484   1.277       .  A
C1471      C1549   1.477       .  S
O1472      C1482   1.243       .  A
O1472     Al1474   1.725       .  S
O1473      C1486   1.267       .  A
O1473     Al1483   1.906       .  S
Al1474     O1487   1.938       .  S
Al1474     O1484   2.033       .  S
Al1474     O1479   1.795       .  S
O1475      C1482   1.291       .  A
O1475     Al1483   2.039       .  S
O1476      C1485   1.293       .  A
O1476     Al1483   2.072       .  S
O1477     Al1483   1.838       .  S
O1478      C1485   1.252       .  A
O1479     Al1483   1.753       .  S
O1480      C1481   1.292       .  A
C1481      C1616   1.441       .  S
C1482      C1574   1.451       .  S
C1485      C1560   1.520       .  S
C1486      O1487   1.271       .  A
C1486      C1601   1.469       .  S
C1488      C1490   1.558       .  S
C1488      C1492   1.547       .  S
C1488      C1491   1.514       .  S
C1488      C1580   1.494       .  S
C1489      C1493   1.562       .  S
C1489      C1495   1.568       .  S
C1489      C1494   1.552       .  S
C1489      C1589   1.525       .  S
C1490      C1498   1.400       .  A
C1490      C1493   1.378       .  A
C1491      C1502   1.364       .  A
C1491      C1494   1.391       .  A
C1492      C1506   1.386       .  A
C1492      C1495   1.374       .  A
C1493      C1496   1.400       .  A
C1494      C1500   1.388       .  A
C1495      C1503   1.404       .  A
C1496      N1497   1.368       .  A
C1496      H1509   1.078       .  S
N1497      C1498   1.363       .  A
N1497      C1575   1.457       .  S
C1498      H1499   1.082       .  S
C1500      N1501   1.363       .  A
C1500      H1510   1.082       .  S
N1501      C1502   1.353       .  A
C1502      H1508   1.083       .  S
C1503      N1504   1.365       .  A
C1503      H1505   1.079       .  S
N1504      C1506   1.346       .  A
N1504      C1534   1.452       .  S
C1506      H1507   1.082       .  S
O1511      C1526   1.237       .  A
C1512      O1513   1.272       .  A
C1512      C1628   1.469       .  S
O1513     Al1515   1.963       .  S
O1514     Al1515   1.875       .  S
Al1515     O1523   1.858       .  S
Al1515     O1525   1.998       .  S
Al1515     O1524   1.719       .  S
C1516      O1529   1.272       .  A
C1516      C1571   1.465       .  S
O1517      C1527   1.244       .  A
O1517     Al1519   1.730       .  S
O1518     Al1528   1.919       .  S
Al1519     O1532   1.928       .  S
Al1519     O1529   2.015       .  S
O1520      C1527   1.290       .  A
O1521      C1530   1.292       .  A
O1521     Al1528   2.077       .  S
O1523      C1530   1.251       .  A
O1524     Al1528   1.754       .  S
O1525      C1526   1.293       .  A
C1526      C1577   1.444       .  S
C1527      C1552   1.452       .  S
C1530      C1538   1.524       .  S
C1531      O1532   1.271       .  A
C1531      C1640   1.474       .  S
O1533      C1548   1.260       .  A
O1533     Al1541   1.878       .  S
C1534      O1544   1.267       .  A
C1534      O1535   1.285       .  A
O1535     Al1537   1.991       .  S
O1536      C1538   1.260       .  A
O1536     Al1537   1.887       .  S
Al1537     O1545   1.945       .  S
Al1537     O1547   1.905       .  S
Al1537     O1546   1.792       .  S
C1538      O1551   1.293       .  A
O1539      C1549   1.272       .  A
O1539     Al1541   1.971       .  S
O1540      C1553   1.250       .  A
O1540     Al1550   1.862       .  S
Al1541     O1554   2.066       .  S
Al1541     O1551   2.052       .  S
Al1541     O1546   1.776       .  S
O1542      C1549   1.255       .  A
O1542     Al1550   1.880       .  S
O1543      C1552   1.254       .  A
O1543     Al1550   1.818       .  S
O1544     Al1550   1.896       .  S
O1545      C1552   1.252       .  A
O1546     Al1550   1.765       .  S
O1547      C1548   1.263       .  A
C1548      C1652   1.464       .  S
C1553      O1554   1.294       .  A
O1555      C1570   1.260       .  A
C1556      O1566   1.264       .  A
C1556      O1557   1.286       .  A
O1557     Al1559   1.999       .  S
O1558      C1560   1.260       .  A
Al1559     O1567   1.944       .  S
Al1559     O1569   1.917       .  S
Al1559     O1568   1.791       .  S
C1560      O1573   1.288       .  A
O1561      C1571   1.269       .  A
O1561     Al1563   1.952       .  S
O1562      C1575   1.250       .  A
O1562     Al1572   1.864       .  S
Al1563     O1573   2.038       .  S
O1564     Al1572   1.874       .  S
O1565      C1574   1.254       .  A
O1565     Al1572   1.820       .  S
O1566     Al1572   1.896       .  S
O1567      C1574   1.251       .  A
O1568     Al1572   1.766       .  S
O1569      C1570   1.267       .  A
C1570      C1664   1.481       .  S
C1575      O1576   1.291       .  A
C1577      C1578   1.379       .  A
C1577      C1582   1.401       .  A
C1578      C1579   1.368       .  A
C1578      H1583   1.088       .  S
C1579      C1580   1.425       .  A
C1579      C1586   1.455       .  S
C1580      C1581   1.416       .  A
C1581      C1582   1.399       .  A
C1581      H1584   1.083       .  S
C1582      C1585   1.442       .  S
C1585      N1587   1.157       .  T
C1586      N1588   1.158       .  T
C1589      C1590   1.395       .  A
C1589      C1594   1.412       .  A
C1590      C1591   1.395       .  A
C1590      H1595   1.084       .  S
C1591      C1592   1.420       .  A
C1591      C1598   1.445       .  S
C1592      C1593   1.402       .  A
C1593      C1594   1.396       .  A
C1593      H1596   1.084       .  S
C1594      C1597   1.443       .  S
C1597      N1599   1.157       .  T
C1598      N1600   1.157       .  T
C1601      C1602   1.403       .  A
C1601      C1606   1.409       .  A
C1602      C1603   1.400       .  A
C1602      H1607   1.085       .  S
C1603      C1604   1.407       .  A
C1603      C1610   1.442       .  S
C1604      C1605   1.401       .  A
C1605      C1606   1.399       .  A
C1605      H1608   1.084       .  S
C1606      C1609   1.444       .  S
C1609      N1611   1.157       .  T
C1613      C1614   1.415       .  A
C1613      C1618   1.425       .  A
C1614      C1615   1.401       .  A
C1614      H1619   1.083       .  S
C1615      C1616   1.403       .  A
C1615      C1622   1.441       .  S
C1616      C1617   1.378       .  A
C1617      C1618   1.365       .  A
C1617      H1620   1.087       .  S
C1618      C1621   1.459       .  S
C1621      N1623   1.158       .  T
C1622      N1624   1.157       .  T
C1625      C1626   1.395       .  A
C1626      C1627   1.395       .  A
C1626      H1631   1.084       .  S
C1627      C1634   1.446       .  S
C1628      C1629   1.402       .  A
C1629      C1630   1.396       .  A
C1629      H1632   1.084       .  S
C1630      C1633   1.442       .  S
C1633      N1635   1.157       .  T
C1634      N1636   1.158       .  T
C1638      C1639   1.398       .  A
C1639      C1640   1.410       .  A
C1639      C1646   1.446       .  S
C1641      C1642   1.407       .  A
C1641      H1644   1.085       .  S
C1645      N1647   1.157       .  T
C1646      N1648   1.157       .  T
C1649      C1650   1.406       .  A
C1649      C1654   1.420       .  A
C1650      C1651   1.396       .  A
C1650      H1655   1.084       .  S
C1651      C1652   1.408   1_655  A
C1651      C1658   1.445   1_655  S
C1652      C1653   1.398   1_455  A
C1653      C1654   1.395       .  A
C1653      H1656   1.086   1_655  S
C1654      C1657   1.446       .  S
C1657      N1659   1.158       .  T
C1658      N1660   1.157       .  T
C1661      C1666   1.419   1_565  A
C1662      C1663   1.396       .  A
C1662      H1667   1.085       .  S
C1663      C1670   1.446       .  S
C1664      C1665   1.402   1_565  A
C1665      C1666   1.398       .  A
C1665      H1668   1.085       .  S
C1666      C1669   1.445       .  S
C1669      N1671   1.157       .  T
C1670      N1672   1.158       .  T
C1673      C1674   1.399       .  A
C1673      C1678   1.402       .  A
C1674      C1675   1.388       .  A
C1674      H1679   1.084       .  S
C1675      C1676   1.405       .  A
C1675      C1682   1.444       .  S
C1676      C1677   1.399       .  A
C1677      C1678   1.392       .  A
C1677      H1680   1.085   1_565  S
C1678      C1681   1.442       .  S
C1681      N1683   1.157       .  T
C1682      N1684   1.156       .  T
C1685      C1686   1.390       .  A
C1685      C1690   1.421       .  A
C1686      C1687   1.371       .  A
C1686      H1691   1.085       .  S
C1687      C1688   1.404       .  A
C1687      C1694   1.454       .  S
C1688      C1689   1.418       .  A
C1689      C1690   1.416       .  A
C1689      H1692   1.084       .  S
C1690      C1693   1.442       .  S
C1693      N1695   1.157       .  T
C1694      N1696   1.155       .  T
C1697      C1698   1.413       .  A
C1697      C1702   1.417       .  A
C1698      C1699   1.415       .  A
C1698      H1703   1.084       .  S
C1701      C1702   1.391       .  A
C1702      C1705   1.443       .  S
C1705      N1707   1.158       .  T
C1706      N1708   1.157       .  T
C1709      C1710   1.400       .  A
C1709      C1714   1.398       .  A
C1710      C1711   1.388       .  A
C1710      H1715   1.085       .  S
C1711      C1712   1.405       .  A
C1711      C1718   1.444       .  S
C1712      C1713   1.397       .  A
C1713      C1714   1.385       .  A
C1713      H1716   1.084       .  S
C1714      C1717   1.442       .  S
C1717      N1719   1.157       .  T
C1718      N1720   1.157       .  T
C1721      C1722   1.397       .  A
C1722      C1723   1.392       .  A
C1722      H1727   1.085       .  S
C1723      C1730   1.445       .  S
C1724      C1725   1.403       .  A
C1725      C1726   1.395       .  A
C1725      H1728   1.085       .  S
C1726      C1729   1.444       .  S
C1729      N1731   1.157       .  T
C1730      N1732   1.157       .  T
C1733      C1734   1.408       .  A
C1734      C1735   1.397       .  A
C1734      H1739   1.085       .  S
C1735      C1736   1.406       .  A
C1735      C1742   1.445       .  S
C1737      C1738   1.401       .  A
C1737      H1740   1.078       .  S
C1738      C1741   1.442       .  S
C1742      N1744   1.157       .  T
