geometry optimzed in LAMMPS
_audit_creation_date              2020-12-01 
_audit_creation_method            'lammps2cif' 
_symmetry_space_group_name_H-M    'P1' 
_symmetry_Int_Tables_number       1 
_symmetry_cell_setting            triclinic 
loop_ 
_symmetry_equiv_pos_as_xyz 
  x,y,z 
_cell_length_a                    59.84565909 
_cell_length_b                    59.83225148396622 
_cell_length_c                    45.682799982620985 
_cell_angle_alpha                 89.9291980611037 
_cell_angle_beta                  89.9578869184687 
_cell_angle_gamma                 90.11493076975816 
loop_ 
_atom_site_label 
_atom_site_type_symbol 
_atom_site_fract_x 
_atom_site_fract_y 
_atom_site_fract_z 
_atom_site_charge 
N1          N  0.98824762  0.76572535  0.47773829    -0.03400
C2          C  0.98452436  0.74337779  0.47610716    -0.00800
C3          C  0.98639836  0.73375925  0.00354786    -0.23700
C4          C  0.99166113  0.75067577  0.02264566    -0.23900
C5          C  0.99262318  0.77010244  0.00630612    -0.00900
H6          H  0.98494167  0.71619483  0.00892426     0.12800
H7          H  0.99439295  0.74901226  0.04596247     0.12900
N8          N  0.00673581  0.24272683  0.01407563    -0.03400
C9          C  0.01134405  0.26492234  0.01572432    -0.00800
C10         C  0.00963458  0.27472332  0.48842055    -0.23700
C11         C  0.00344740  0.25812597  0.46935264    -0.23900
C12         C  0.00175181  0.23864558  0.48554416    -0.00900
H13         H  0.01161968  0.29226117  0.48318036     0.12800
H14         H  0.00043444  0.26007456  0.44613320     0.12900
N15         N  0.73370365  0.99368580  0.47607055    -0.03400
C16         C  0.75590363  0.99849963  0.47529801    -0.00800
C17         C  0.76406572  0.00143413  0.00334307    -0.23700
C18         C  0.74643223  0.99833640  0.02206363    -0.23900
C19         C  0.72800993  0.99378136  0.00487618    -0.00900
H20         H  0.78109199  0.00531159  0.00952431     0.12800
H21         H  0.74680287  0.00009759  0.04563643     0.12900
N22         N  0.26176041  0.01080600  0.01839682    -0.03400
C23         C  0.23940362  0.01454669  0.01940004    -0.00800
C24         C  0.23005272  0.01186328  0.49198294    -0.23700
C25         C  0.24714111  0.00612033  0.47343747    -0.23900
C26         C  0.26641382  0.00566609  0.49007494    -0.00900
H27         H  0.21255986  0.01325617  0.48628710     0.12800
H28         H  0.24572055  0.00286883  0.45021079     0.12900
N29         N  0.49217705  0.74017315  0.47998345    -0.03400
C30         C  0.48777682  0.76232316  0.47725438    -0.00800
C31         C  0.48457523  0.77191123  0.00443123    -0.23700
C32         C  0.48713037  0.75516352  0.02468370    -0.23900
C33         C  0.49159773  0.73585140  0.00917664    -0.00900
H34         H  0.48101765  0.78928615  0.00902550     0.12800
H35         H  0.48528004  0.75676710  0.04815558     0.12900
N36         N  0.49570461  0.26618811  0.02014229    -0.03400
C37         C  0.49935453  0.24390101  0.02265223    -0.00800
C38         C  0.50019687  0.23414905  0.49525267    -0.23700
C39         C  0.49704425  0.25096896  0.47522354    -0.23900
C40         C  0.49455021  0.27052762  0.49099355    -0.00900
H41         H  0.50289653  0.21666850  0.49034802     0.12800
H42         H  0.49753660  0.24923794  0.45165434     0.12900
N43         N  0.23563946  0.49680856  0.01624422    -0.03400
C44         C  0.25797791  0.49302771  0.01731087    -0.00800
C45         C  0.26732979  0.49514854  0.48977769    -0.23700
C46         C  0.25027401  0.50062077  0.47110821    -0.23900
C47         C  0.23099657  0.50152865  0.48778732    -0.00900
H48         H  0.28482873  0.49373534  0.48408095     0.12800
H49         H  0.25176945  0.50355271  0.44780437     0.12900
N50         N  0.76031096  0.50764517  0.48082970    -0.03400
C51         C  0.73789590  0.51111935  0.47903864    -0.00800
C52         C  0.72805384  0.50839196  0.00620709    -0.23700
C53         C  0.74479990  0.50289003  0.02534812    -0.23900
C54         C  0.76441189  0.50260157  0.00937864    -0.00900
H55         H  0.71044467  0.50959308  0.01137963     0.12800
H56         H  0.74291129  0.49961841  0.04852498     0.12900
O57         O  0.48347868  0.51295236  0.19941404    -0.88300
C58         C  0.47292650  0.54396983  0.27714928     0.87700
Mg59       Mg  0.47455223  0.47897070  0.19206548     1.58100
O60         O  0.52877909  0.53055870  0.26310117    -0.88000
O61         O  0.51333235  0.53427659  0.19758126    -0.75400
C62         C  0.51252390  0.42645429  0.31039056     0.92800
O63         O  0.44391793  0.50511311  0.24570170    -0.75200
O64         O  0.49834299  0.42418595  0.28983644    -0.82700
Mg65       Mg  0.45824434  0.53390612  0.21800952     1.58000
C66         C  0.56887380  0.50179252  0.32453178     0.92700
O67         O  0.46965799  0.56325643  0.18910323    -0.80900
H68         H  0.55573285  0.53259825  0.23732578    -0.06300
C69         C  0.49434290  0.48732909  0.31422872     0.87600
O70         O  0.51073162  0.46808467  0.20108766    -0.75500
O71         O  0.48095454  0.54243316  0.25225318    -0.88200
O72         O  0.55675734  0.51906007  0.32057429    -0.81000
C73         C  0.52074840  0.58166100  0.30409906     0.92800
C74         C  0.48252611  0.58022835  0.19024300     0.92700
Mg75       Mg  0.53656062  0.47299351  0.28268121     1.58000
O76         O  0.52546738  0.44338999  0.31175406    -0.80900
O77         O  0.55048932  0.50176096  0.25460738    -0.75200
O78         O  0.51279562  0.58077597  0.27818997    -0.81000
O79         O  0.43296879  0.52477207  0.18339223    -0.82700
O80         O  0.48194690  0.42625104  0.22246922    -0.81100
C81         C  0.54548516  0.52226597  0.25141328     0.87100
O82         O  0.51365290  0.46445893  0.24869084    -0.88200
O83         O  0.51139326  0.49394005  0.30146778    -0.88300
O84         O  0.48130264  0.47286520  0.30301810    -0.75400
Mg85       Mg  0.51243110  0.55620964  0.23893448     1.58000
O86         O  0.52830904  0.56435367  0.31689040    -0.82700
H87         H  0.50462658  0.51249263  0.16550565    -0.06500
O88         O  0.46568162  0.47633644  0.23733303    -0.88000
H89         H  0.43843246  0.47417804  0.26256377    -0.06300
H90         H  0.53882591  0.45728579  0.22149613    -0.06500
C91         C  0.44884895  0.48457763  0.24877585     0.87100
C92         C  0.50038515  0.51969518  0.18648132     0.87700
C93         C  0.52172314  0.46279166  0.22385147     0.87700
H94         H  0.49003571  0.49458709  0.33514871    -0.06400
O95         O  0.48401861  0.53871899  0.29986946    -0.75500
Mg96       Mg  0.48216672  0.45079421  0.26179034     1.58000
H97         H  0.45578674  0.54934079  0.27959528    -0.06500
C98         C  0.42667475  0.50565401  0.17444196     0.92700
O99         O  0.46665151  0.44267182  0.18356978    -0.82700
C100        C  0.47420807  0.42538897  0.19643586     0.92800
O101        O  0.49641495  0.58289946  0.21102938    -0.82700
Mg102      Mg  0.52037001  0.52800480  0.30844231     1.58200
O103        O  0.43850214  0.48819935  0.17854158    -0.81000
O104        O  0.56234836  0.48242573  0.31676854    -0.82700
O105        O  0.50845206  0.01681051  0.19683719    -0.88300
C106        C  0.54032524  0.02327379  0.27482080     0.87700
Mg107      Mg  0.47502175  0.02784519  0.18989821     1.58100
O108        O  0.52348352  0.96861253  0.25843848    -0.88000
O109        O  0.52796889  0.98585528  0.19363229    -0.75400
C110        C  0.42032637  0.99010731  0.30656123     0.92800
O111        O  0.50296473  0.05502368  0.24526574    -0.75200
O112        O  0.41862759  0.00478146  0.28649459    -0.82700
Mg113      Mg  0.53086025  0.04021875  0.21666943     1.58000
C114        C  0.49175328  0.92919930  0.31825426     0.92700
O115        O  0.55964095  0.02825556  0.18706839    -0.80900
H116        H  0.52364097  0.94232268  0.23144778    -0.06300
C117        C  0.48219959  0.00433467  0.31082903     0.87600
O118        O  0.46206172  0.99204866  0.19695484    -0.75500
O119        O  0.53811036  0.01601260  0.24963722    -0.88200
O120        O  0.50992528  0.94014648  0.31504074    -0.81000
C121        C  0.57498784  0.97301888  0.29978552     0.92800
C122        C  0.57591229  0.01453309  0.18774352     0.92700
Mg123      Mg  0.46528871  0.96410543  0.27738756     1.58000
O124        O  0.43649661  0.97624086  0.30709582    -0.80900
O125        O  0.49318472  0.94920320  0.24877294    -0.75200
O126        O  0.57443508  0.98140655  0.27407018    -0.81000
O127        O  0.52303920  0.06726257  0.18369660    -0.82700
O128        O  0.42187290  0.02280140  0.21994249    -0.81100
C129        C  0.51402801  0.95285409  0.24595304     0.87100
O130        O  0.45805265  0.98821683  0.24442078    -0.88200
O131        O  0.48787168  0.98738597  0.29719941    -0.88300
O132        O  0.46837575  0.01836486  0.30037734    -0.75400
Mg133      Mg  0.55000262  0.98427978  0.23487913     1.58000
O134        O  0.55731543  0.96610908  0.31249723    -0.82700
H135        H  0.50668194  0.99660790  0.16206245    -0.06500
O136        O  0.47279489  0.03545634  0.23556053    -0.88000
H137        H  0.47245897  0.06175885  0.26251848    -0.06300
H138        H  0.44943830  0.96416396  0.21621516    -0.06500
C139        C  0.48214469  0.05127346  0.24803877     0.87100
C140        C  0.51416098  0.99989085  0.18317468     0.87700
C141        C  0.45597294  0.98086006  0.21925834     0.87700
H142        H  0.48970549  0.00763678  0.33191832    -0.06400
O143        O  0.53440156  0.01196900  0.29710126    -0.75500
Mg144      Mg  0.44626904  0.02000031  0.25916550     1.58000
H145        H  0.54688533  0.03995342  0.27791894    -0.06500
C146        C  0.50420212  0.07507373  0.17588026     0.92700
O147        O  0.43918467  0.03771214  0.18140205    -0.82700
C148        C  0.42147874  0.03087847  0.19405439     0.92800
O149        O  0.57762059  0.99981000  0.20775327    -0.82700
Mg150      Mg  0.52133926  0.97618350  0.30413531     1.58200
O151        O  0.48616780  0.06392608  0.17912967    -0.81000
O152        O  0.47302546  0.93713416  0.31024667    -0.82700
O153        O  0.00968756  0.99489231  0.19390682    -0.88300
C154        C  0.02299222  0.96330898  0.27021242     0.87700
Mg155      Mg  0.01859416  0.02893569  0.18643393     1.58100
O156        O  0.96672015  0.97703926  0.26009262    -0.88000
O157        O  0.97979133  0.97356723  0.19359838    -0.75400
C158        C  0.98413286  0.08185880  0.30632009     0.92800
O159        O  0.05037691  0.00235925  0.23806561    -0.75200
O160        O  0.99805515  0.08425539  0.28541779    -0.82700
Mg161      Mg  0.03547120  0.97372095  0.21060845     1.58000
C162        C  0.92954717  0.00587979  0.32480094     0.92700
O163        O  0.02305417  0.94447055  0.18200547    -0.80900
H164        H  0.93884176  0.97530247  0.23609511    -0.06300
C165        C  0.00281963  0.02078074  0.30936058     0.87600
O166        O  0.98269624  0.03993942  0.19709832    -0.75500
O167        O  0.01397063  0.96477736  0.24592586    -0.88200
O168        O  0.94149687  0.98863863  0.32002152    -0.81000
C169        C  0.97574584  0.92594687  0.30043934     0.92800
C170        C  0.01027856  0.92742438  0.18385642     0.92700
Mg171      Mg  0.95975198  0.03488056  0.28011068     1.58000
O172        O  0.97147502  0.06472256  0.30811571    -0.80900
O173        O  0.94495374  0.00604912  0.25304161    -0.75200
O174        O  0.98261254  0.92642665  0.27393938    -0.81000
O175        O  0.06005960  0.98327266  0.17498982    -0.82700
O176        O  0.01300359  0.08209400  0.21711678    -0.81100
C177        C  0.94967447  0.98551069  0.24952392     0.87100
O178        O  0.98133944  0.04387316  0.24479889    -0.88200
O179        O  0.98569638  0.01394663  0.29708977    -0.88300
O180        O  0.01537883  0.03549500  0.29776562    -0.75400
Mg181      Mg  0.98198028  0.95129780  0.23466404     1.58000
O182        O  0.96953477  0.94357227  0.31366643    -0.82700
H183        H  0.98740162  0.99565681  0.16131306    -0.06500
O184        O  0.02867743  0.03149743  0.23127940    -0.88000
H185        H  0.05644169  0.03295018  0.25555295    -0.06300
H186        H  0.95535154  0.05103126  0.21896343    -0.06500
C187        C  0.04564631  0.02287981  0.24189727     0.87100
C188        C  0.99234718  0.98826979  0.18192570     0.87700
C189        C  0.97249025  0.04545542  0.22040759     0.87700
H190        H  0.00758110  0.01356327  0.33014983    -0.06400
O191        O  0.01297071  0.96895447  0.29359387    -0.75500
Mg192      Mg  0.01332410  0.05742342  0.25646100     1.58000
H193        H  0.04015260  0.95777521  0.27147853    -0.06500
C194        C  0.06638836  0.00269694  0.16715861     0.92700
O195        O  0.02648990  0.06510053  0.17754382    -0.82700
C196        C  0.02008020  0.08266919  0.19072867     0.92800
O197        O  0.99699094  0.92467888  0.20536914    -0.82700
Mg198      Mg  0.97714199  0.97979266  0.30474114     1.58200
O199        O  0.05442432  0.01992048  0.17199659    -0.81000
O200        O  0.93549879  0.02519199  0.31601746    -0.82700
O201        O  0.98906461  0.48858602  0.19858011    -0.88300
C202        C  0.95803022  0.47864332  0.27658510     0.87700
Mg203      Mg  0.02322621  0.47962881  0.19128271     1.58100
O204        O  0.97144313  0.53446159  0.26145934    -0.88000
O205        O  0.96751569  0.51822364  0.19640960    -0.75400
C206        C  0.07530952  0.51854186  0.30893435     0.92800
O207        O  0.99685161  0.44972962  0.24562890    -0.75200
O208        O  0.07799513  0.50438186  0.28845712    -0.82700
Mg209      Mg  0.96798046  0.46343414  0.21765063     1.58000
C210        C  0.00039298  0.57522264  0.32156081     0.92700
O211        O  0.93815085  0.47438460  0.18859632    -0.80900
H212        H  0.96956228  0.56095885  0.23484655    -0.06300
C213        C  0.01481047  0.50064532  0.31273867     0.87600
O214        O  0.03430076  0.51589295  0.19931650    -0.75500
O215        O  0.95948196  0.48645362  0.25155083    -0.88200
O216        O  0.98325300  0.56280246  0.31815583    -0.81000
C217        C  0.92069245  0.52628077  0.30368406     0.92800
C218        C  0.92110665  0.48714635  0.19014266     0.92700
Mg219      Mg  0.02919099  0.54246568  0.28030332     1.58000
O220        O  0.05840704  0.53148218  0.30975934    -0.80900
O221        O  0.00042890  0.55589461  0.25196256    -0.75200
O222        O  0.92132458  0.51818471  0.27781990    -0.81000
O223        O  0.97733851  0.43745740  0.18375833    -0.82700
O224        O  0.07636784  0.48684721  0.22147474    -0.81100
C225        C  0.97985635  0.55092527  0.24917016     0.87100
O226        O  0.03793497  0.51919677  0.24685037    -0.88200
O227        O  0.00819012  0.51745401  0.29952014    -0.88300
O228        O  0.02932668  0.48753795  0.30189417    -0.75400
Mg229      Mg  0.94565336  0.51770157  0.23800120     1.58000
O230        O  0.93807364  0.53422206  0.31589115    -0.82700
H231        H  0.98938290  0.50951607  0.16440729    -0.06500
O232        O  0.02587860  0.47121738  0.23667529    -0.88000
H233        H  0.02767219  0.44441148  0.26275898    -0.06300
H234        H  0.04541452  0.54408663  0.21926291    -0.06500
C235        C  0.01742177  0.45463228  0.24860939     0.87100
C236        C  0.98222181  0.50535633  0.18546719     0.87700
C237        C  0.03972803  0.52703779  0.22188856     0.87700
H238        H  0.00752032  0.49660857  0.33376425    -0.06400
O239        O  0.96343731  0.48993624  0.29906561    -0.75500
Mg240      Mg  0.05149870  0.48786474  0.26069760     1.58000
H241        H  0.95260319  0.46152424  0.27936044    -0.06500
C242        C  0.99665628  0.43119126  0.17550062     0.92700
O243        O  0.05974641  0.47167802  0.18266248    -0.82700
C244        C  0.07720269  0.47891895  0.19552558     0.92800
O245        O  0.91881289  0.50121856  0.21079192    -0.82700
Mg246      Mg  0.97426832  0.52637375  0.30686680     1.58200
O247        O  0.01390333  0.44342863  0.17921105    -0.81000
O248        O  0.01977507  0.56884792  0.31373015    -0.82700
C249        C  0.78636972  0.49816612  0.02305017    -0.03300
C250        C  0.80423498  0.51327589  0.02013319    -0.09100
C251        C  0.82358212  0.51059112  0.03709485    -0.16700
C252        C  0.82520933  0.49275010  0.05694467     0.25400
C253        C  0.80775504  0.47725971  0.05906579    -0.18400
C254        C  0.78845548  0.47998929  0.04232905    -0.07300
C255        C  0.84380447  0.49109109  0.07688027    -0.13800
C256        C  0.85792308  0.48957280  0.09564350    -0.13500
C257        C  0.87346130  0.48824370  0.11969887     0.25300
C258        C  0.87074681  0.50228830  0.14389604    -0.18900
C259        C  0.88583593  0.50140326  0.16719887    -0.07400
C260        C  0.90396207  0.48643115  0.16668122    -0.03400
C261        C  0.90632622  0.47205165  0.14249529    -0.08800
C262        C  0.89115140  0.47295766  0.11917938    -0.16400
H263        H  0.80279618  0.52765108  0.00584298     0.11800
H264        H  0.83691495  0.52280431  0.03544249     0.11000
H265        H  0.80874215  0.46347096  0.07440271     0.11000
H266        H  0.77481429  0.46823311  0.04504520     0.11500
H267        H  0.85706321  0.51410800  0.14463469     0.11600
H268        H  0.88351849  0.51277623  0.18536620     0.11500
H269        H  0.92011528  0.46039612  0.14132508     0.11700
H270        H  0.89335429  0.46190846  0.10063513     0.10500
C271        C  0.77646595  0.50939302  0.45744246    -0.03300
C272        C  0.77599523  0.52764781  0.43804015    -0.09100
C273        C  0.79213299  0.52976719  0.41599824    -0.16700
C274        C  0.80898926  0.51370387  0.41313559     0.25400
C275        C  0.80940371  0.49534527  0.43217824    -0.18400
C276        C  0.79319211  0.49313696  0.45408108    -0.07300
C277        C  0.82630936  0.51639595  0.39139799    -0.13800
C278        C  0.84157942  0.51871604  0.37433686    -0.13500
C279        C  0.86082095  0.52160414  0.35562620     0.25300
C280        C  0.86160604  0.51167543  0.32787906    -0.18900
C281        C  0.88080146  0.51375229  0.31046155    -0.07400
C282        C  0.89951309  0.52573080  0.32065915    -0.03400
C283        C  0.89835687  0.53595041  0.34838006    -0.08800
C284        C  0.87918031  0.53389572  0.36566621    -0.16400
H285        H  0.76339112  0.54047724  0.44034871     0.11800
H286        H  0.79165826  0.54409133  0.40148754     0.11000
H287        H  0.82235500  0.48280628  0.43022602     0.11000
H288        H  0.79372181  0.47877135  0.46847575     0.11500
H289        H  0.84752619  0.50205493  0.31988849     0.11600
H290        H  0.88118519  0.50553945  0.28935846     0.11500
H291        H  0.91242990  0.54525183  0.35698509     0.11700
H292        H  0.87881208  0.54163121  0.38709613     0.10500
C293        C  0.72454695  0.51471327  0.45217941    -0.03300
C294        C  0.72678645  0.50053648  0.42784859    -0.09100
C295        C  0.71071893  0.50084617  0.40550194    -0.16700
C296        C  0.69242126  0.51540287  0.40729600     0.25400
C297        C  0.69089589  0.53040174  0.43065235    -0.18400
C298        C  0.70680211  0.53003202  0.45295209    -0.07300
C299        C  0.67385040  0.51345805  0.38738607    -0.13800
C300        C  0.65659001  0.51167912  0.37392540    -0.13500
C301        C  0.63481915  0.50929861  0.36078651     0.25300
C302        C  0.62143023  0.52811976  0.35603553    -0.18900
C303        C  0.59986392  0.52569942  0.34461352    -0.07400
C304        C  0.59136240  0.50436537  0.33781465    -0.03400
C305        C  0.60496253  0.48555348  0.34273621    -0.08800
C306        C  0.62649924  0.48802363  0.35417449    -0.16400
H307        H  0.74005167  0.48827030  0.92706401     0.11800
H308        H  0.71197812  0.48902560  0.38763834     0.11000
H309        H  0.67678849  0.54165194  0.43238463     0.11000
H310        H  0.70467341  0.54101366  0.47157754     0.11500
H311        H  0.62761273  0.54466407  0.36130748     0.11600
H312        H  0.58991113  0.54053979  0.34098105     0.11500
H313        H  0.59899861  0.46889944  0.33769546     0.11700
H314        H  0.63661833  0.47331424  0.35800984     0.10500
C315        C  0.20886618  0.50639710  0.47498018    -0.03300
C316        C  0.20719889  0.52318785  0.45357361    -0.09100
C317        C  0.18747227  0.52605991  0.43785711    -0.16700
C318        C  0.16912222  0.51218513  0.44327096     0.25400
C319        C  0.17035482  0.49578377  0.46515138    -0.18400
C320        C  0.19018419  0.49288943  0.48099583    -0.07300
C321        C  0.14994034  0.51379291  0.42449274    -0.13800
C322        C  0.13571063  0.51529990  0.40596884    -0.13500
C323        C  0.12069530  0.51671313  0.38150152     0.25300
C324        C  0.10192505  0.53059285  0.38256214    -0.18900
C325        C  0.08749202  0.53181934  0.35853564    -0.07400
C326        C  0.09169506  0.51913097  0.33317618    -0.03400
C327        C  0.11082460  0.50552363  0.33222880    -0.08800
C328        C  0.12520834  0.50436243  0.35621465    -0.16400
H329        H  0.22142505  0.53371147  0.44844031     0.11800
H330        H  0.18677020  0.53866334  0.42082318     0.11000
H331        H  0.15630385  0.48477311  0.46924820     0.11000
H332        H  0.19124232  0.47946071  0.49683227     0.11500
H333        H  0.09835629  0.54031316  0.40199986     0.11600
H334        H  0.07281630  0.54231275  0.36006956     0.11500
H335        H  0.11451813  0.49548429  0.31312655     0.11700
H336        H  0.13978567  0.49368064  0.35511462     0.10500
C337        C  0.09879061  0.47887632  0.17928729    -0.03300
C338        C  0.11777370  0.48993251  0.19044614    -0.09100
C339        C  0.13728374  0.49186699  0.17353920    -0.16700
C340        C  0.13813954  0.48268806  0.14533689     0.25400
C341        C  0.11962426  0.47099876  0.13455066    -0.18400
C342        C  0.10014452  0.46909605  0.15131755    -0.07300
C343        C  0.15742844  0.48599914  0.12670315    -0.13800
C344        C  0.17240187  0.48859580  0.10919515    -0.13500
C345        C  0.18915844  0.49120576  0.08659498     0.25300
C346        C  0.20411898  0.47380506  0.08065057    -0.18900
C347        C  0.21954720  0.47581049  0.05773961    -0.07400
C348        C  0.22010947  0.49516458  0.04031307    -0.03400
C349        C  0.20524747  0.51267084  0.04650432    -0.08800
C350        C  0.18988404  0.51071103  0.06954628    -0.16400
H351        H  0.11733246  0.49767573  0.21185099     0.11800
H352        H  0.15149065  0.50094267  0.18220371     0.11000
H353        H  0.12004751  0.46376734  0.11282294     0.11000
H354        H  0.08594362  0.46039690  0.14203034     0.11500
H355        H  0.20367489  0.45857559  0.09348685     0.11600
H356        H  0.23080818  0.46210447  0.55318456     0.11500
H357        H  0.20555858  0.52777880  0.03344906     0.11700
H358        H  0.17839081  0.52428714  0.07383079     0.10500
C359        C  0.27170076  0.49047913  0.04391129    -0.03300
C360        C  0.28949431  0.47523638  0.04370442    -0.09100
C361        C  0.30586115  0.47606640  0.06537538    -0.16700
C362        C  0.30470145  0.49221199  0.08741979     0.25400
C363        C  0.28635136  0.50669699  0.08873588    -0.18400
C364        C  0.26982639  0.50578647  0.06707385    -0.07300
C365        C  0.32355019  0.49519185  0.10651930    -0.13800
C366        C  0.34083108  0.49740139  0.11973318    -0.13500
C367        C  0.36239295  0.49954304  0.13334465     0.25300
C368        C  0.36967623  0.52031153  0.14366604    -0.18900
C369        C  0.39074064  0.52237737  0.15660484    -0.07400
C370        C  0.40482015  0.50365313  0.15940235    -0.03400
C371        C  0.39744299  0.48290828  0.14856755    -0.08800
C372        C  0.37638188  0.48090416  0.13559243    -0.16400
H373        H  0.29131197  0.46342733  0.52590959     0.11800
H374        H  0.32001447  0.46483831  0.06409431     0.11000
H375        H  0.28538872  0.51936720  0.10560535     0.11000
H376        H  0.25652365  0.51802704  0.06729323     0.11500
H377        H  0.35905973  0.53489071  0.14179047     0.11600
H378        H  0.39588521  0.53859784  0.16468142     0.11500
H379        H  0.40786246  0.46819047  0.15028660     0.11700
H380        H  0.37097834  0.46479163  0.12739158     0.10500
C381        C  0.50323631  0.09795980  0.16344386    -0.03300
C382        C  0.52294686  0.11053786  0.15971422    -0.09100
C383        C  0.52204231  0.13245571  0.14918961    -0.16700
C384        C  0.50146530  0.14217776  0.14231044     0.25400
C385        C  0.48175722  0.12981452  0.14580763    -0.18400
C386        C  0.48260869  0.10785584  0.15634092    -0.07300
C387        C  0.50081609  0.16428964  0.12988702    -0.13800
C388        C  0.50119069  0.18170071  0.11657841    -0.13500
C389        C  0.50269105  0.20004713  0.09628034     0.25300
C390        C  0.48654091  0.21699858  0.09585590    -0.18900
C391        C  0.48618810  0.23250941  0.07281319    -0.07400
C392        C  0.50192276  0.23100043  0.05005080    -0.03400
C393        C  0.51873211  0.21471201  0.05158629    -0.08800
C394        C  0.51913846  0.19938878  0.07456462    -0.16400
H395        H  0.53909922  0.10348410  0.16500002     0.11800
H396        H  0.53742537  0.14177487  0.14623484     0.11000
H397        H  0.46575166  0.13709285  0.14022789     0.11000
H398        H  0.46712263  0.09868855  0.15904303     0.11500
H399        H  0.47363833  0.21756587  0.11247829     0.11600
H400        H  0.47287070  0.24470842  0.07184829     0.11500
H401        H  0.53103094  0.21326822  0.03428331     0.11700
H402        H  0.53166073  0.18632755  0.07460371     0.10500
C403        C  0.51312652  0.40946638  0.33404219    -0.03300
C404        C  0.52678325  0.41243742  0.35885694    -0.09100
C405        C  0.52539407  0.39758742  0.38253182    -0.16700
C406        C  0.51038224  0.37962122  0.38165032     0.25400
C407        C  0.49723503  0.37621012  0.35675412    -0.18400
C408        C  0.49858049  0.39097426  0.33313615    -0.07300
C409        C  0.50804955  0.36462936  0.40614362    -0.13800
C410        C  0.50473274  0.35065799  0.42470328    -0.13500
C411        C  0.49997594  0.33204691  0.44372687     0.25300
C412        C  0.48544119  0.31526298  0.43409628    -0.18900
C413        C  0.48262414  0.29580660  0.45058020    -0.07400
C414        C  0.49428034  0.29286815  0.47698520    -0.03400
C415        C  0.50813481  0.31019903  0.48719646    -0.08800
C416        C  0.51094566  0.32971860  0.47062700    -0.16400
H417        H  0.53810867  0.42652996  0.36030720     0.11800
H418        H  0.53574019  0.40032051  0.40165126     0.11000
H419        H  0.48564513  0.36229170  0.35577462     0.11000
H420        H  0.48781635  0.38816842  0.31444984     0.11500
H421        H  0.47690164  0.31685550  0.41329020     0.11600
H422        H  0.47194980  0.28266211  0.44216725     0.11500
H423        H  0.51782114  0.30816034  0.50700438     0.11700
H424        H  0.52234865  0.34254902  0.47819969     0.10500
C425        C  0.49282565  0.28198050  0.04354994    -0.03300
C426        C  0.50923360  0.28440387  0.06526645    -0.09100
C427        C  0.50659925  0.30027630  0.08748838    -0.16700
C428        C  0.48744997  0.31370950  0.08828971     0.25400
C429        C  0.47094282  0.31114541  0.06683568    -0.18400
C430        C  0.47364602  0.29541240  0.04453514    -0.07300
C431        C  0.48497818  0.33067583  0.11040815    -0.13800
C432        C  0.48251826  0.34580462  0.12754779    -0.13500
C433        C  0.47926306  0.36504423  0.14599414     0.25300
C434        C  0.46654225  0.38299472  0.13571626    -0.18900
C435        C  0.46430711  0.40232078  0.15257523    -0.07400
C436        C  0.47476710  0.40400133  0.18007920    -0.03400
C437        C  0.48706281  0.38563533  0.19061184    -0.08800
C438        C  0.48933964  0.36629954  0.17360807    -0.16400
H439        H  0.52419878  0.27427453  0.06463910     0.11800
H440        H  0.51954825  0.30221026  0.10384698     0.11000
H441        H  0.45608793  0.32146976  0.06717821     0.11000
H442        H  0.46082750  0.29366148  0.02798457     0.11500
H443        H  0.45866966  0.38222052  0.11438502     0.11600
H444        H  0.45472033  0.41611328  0.14379020     0.11500
H445        H  0.49544175  0.38643985  0.21158871     0.11700
H446        H  0.49927230  0.35251767  0.18176209     0.10500
C447        C  0.49233895  0.90646912  0.33114816    -0.03300
C448        C  0.51242517  0.89737866  0.34180687    -0.09100
C449        C  0.51280831  0.87584361  0.35377343    -0.16700
C450        C  0.49319139  0.86309596  0.35506814     0.25400
C451        C  0.47321163  0.87187952  0.34420049    -0.18400
C452        C  0.47276386  0.89339042  0.33231161    -0.07300
C453        C  0.49315119  0.84165879  0.36934364    -0.13800
C454        C  0.49217942  0.82478061  0.38370874    -0.13500
C455        C  0.48994197  0.80662554  0.40415436     0.25300
C456        C  0.47083608  0.80544988  0.42174537    -0.18900
C457        C  0.46970530  0.79002090  0.44459804    -0.07400
C458        C  0.48757976  0.77544164  0.44993694    -0.03400
C459        C  0.50629456  0.77589303  0.43140275    -0.08800
C460        C  0.50751041  0.79154140  0.40862115    -0.16400
H461        H  0.52779276  0.90695001  0.34111810     0.11800
H462        H  0.52833329  0.86925300  0.36234984     0.11000
H463        H  0.45789928  0.86221440  0.34527660     0.11000
H464        H  0.45704947  0.89978010  0.32410708     0.11500
H465        H  0.45720889  0.81710677  0.41859460     0.11600
H466        H  0.45520924  0.78998061  0.95881762     0.11500
H467        H  0.52040536  0.76503787  0.43555056     0.11700
H468        H  0.52246317  0.79246661  0.39529428     0.10500
C469        C  0.48213821  0.59668223  0.16602711    -0.03300
C470        C  0.46738705  0.59401876  0.14226241    -0.09100
C471        C  0.46852074  0.60843598  0.11816697    -0.16700
C472        C  0.48441902  0.62560513  0.11752842     0.25400
C473        C  0.49892015  0.62856118  0.14120598    -0.18400
C474        C  0.49780098  0.61423873  0.16529606    -0.07300
C475        C  0.48578582  0.64060642  0.09300501    -0.13800
C476        C  0.48778224  0.65482013  0.07449710    -0.13500
C477        C  0.49071319  0.67393255  0.05581254     0.25300
C478        C  0.50411052  0.69162226  0.06545838    -0.18900
C479        C  0.50521300  0.71139587  0.04934718    -0.07400
C480        C  0.49302670  0.71367666  0.02328017    -0.03400
C481        C  0.48020849  0.69558587  0.01309094    -0.08800
C482        C  0.47905323  0.67576005  0.02934290    -0.16400
H483        H  0.45521996  0.58059845  0.14206246     0.11800
H484        H  0.45713342  0.60609742  0.09999561     0.11000
H485        H  0.51121707  0.64188088  0.14096679     0.11000
H486        H  0.50950428  0.61667684  0.18308103     0.11500
H487        H  0.51312014  0.69040945  0.08596738     0.11600
H488        H  0.51508881  0.72518712  0.05765952     0.11500
H489        H  0.47027225  0.69716112  0.99340331     0.11700
H490        H  0.46849360  0.66221119  0.02182162     0.10500
C491        C  0.49678709  0.72448222  0.45678505    -0.03300
C492        C  0.51462150  0.70936099  0.45933974    -0.09100
C493        C  0.51866495  0.69359586  0.43741033    -0.16700
C494        C  0.50507952  0.69285572  0.41249175     0.25400
C495        C  0.48743751  0.70805574  0.40958346    -0.18400
C496        C  0.48328960  0.72375676  0.43162816    -0.07300
C497        C  0.50892058  0.67604310  0.39045911    -0.12600
C498        C  0.51220947  0.66108876  0.37326555    -0.13500
C499        C  0.51594276  0.64205598  0.35455391     0.25300
C500        C  0.50595311  0.64085119  0.32687911    -0.18900
C501        C  0.50823244  0.62153520  0.30983388    -0.07400
C502        C  0.52043389  0.60311027  0.32037657    -0.03400
C503        C  0.53098458  0.60480442  0.34782622    -0.08800
C504        C  0.52874731  0.62412333  0.36473726    -0.16400
H505        H  0.52536167  0.70974975  0.47837797     0.11800
H506        H  0.53233078  0.68189884  0.43996632     0.11000
H507        H  0.47673455  0.70758624  0.39048624     0.11000
H508        H  0.46929820  0.73506418  0.42933389     0.11500
H509        H  0.49597757  0.65461692  0.31876813     0.11600
H510        H  0.49984271  0.62076002  0.28886292     0.11500
H511        H  0.54055614  0.59099127  0.35658404     0.11700
H512        H  0.53657777  0.62485354  0.38609641     0.10500
C513        C  0.08857609  0.00544051  0.15304884    -0.03300
C514        C  0.09569722  0.02650983  0.14287699    -0.09100
C515        C  0.11722657  0.02935363  0.13145594    -0.16700
C516        C  0.13197230  0.01124295  0.13015000     0.25400
C517        C  0.12495297  0.99017315  0.13984199    -0.18400
C518        C  0.10342379  0.98726499  0.15118415    -0.07300
C519        C  0.15405203  0.01410997  0.11806371    -0.13800
C520        C  0.17191121  0.01622165  0.10607387    -0.13500
C521        C  0.19167309  0.01833008  0.08824037     0.25300
C522        C  0.20860048  0.00217733  0.08952849    -0.18900
C523        C  0.22565083  0.00208019  0.06847252    -0.07400
C524        C  0.22567210  0.01799378  0.04585633    -0.03400
C525        C  0.20945573  0.03490280  0.04579395    -0.08800
C526        C  0.19262251  0.03513526  0.06695464    -0.16400
H527        H  0.08472178  0.04085174  0.14399515     0.11800
H528        H  0.12239924  0.04570174  0.12375925     0.11000
H529        H  0.13615203  0.97599272  0.13873140     0.11000
H530        H  0.09855136  0.97084907  0.15892272     0.11500
H531        H  0.20794982  0.98899122  0.10578093     0.11600
H532        H  0.23778650  0.98867443  0.56856803     0.11500
H533        H  0.20912791  0.04720385  0.02837979     0.11700
H534        H  0.17961153  0.04766575  0.06566627     0.10500
C535        C  0.28864228  0.00136418  0.47719059    -0.03300
C536        C  0.29132565  0.98294308  0.45852828    -0.09100
C537        C  0.31072254  0.98057188  0.44187777    -0.16700
C538        C  0.32763085  0.99668778  0.44344241     0.25400
C539        C  0.32547707  0.01471664  0.46285037    -0.18400
C540        C  0.30605609  0.01701064  0.47978663    -0.07300
C541        C  0.34602858  0.99551891  0.42314050    -0.13800
C542        C  0.35975497  0.99415104  0.40386129    -0.13500
C543        C  0.37465663  0.99261167  0.37914900     0.25300
C544        C  0.39116401  0.97608227  0.37815239    -0.18900
C545        C  0.40560686  0.97474778  0.35409120    -0.07400
C546        C  0.40368700  0.98994134  0.33065737    -0.03400
C547        C  0.38672658  0.00619982  0.33165073    -0.08800
C548        C  0.37235388  0.00750792  0.35571559    -0.16400
H549        H  0.27801135  0.97079702  0.45607250     0.11800
H550        H  0.31213391  0.96662584  0.42688285     0.11000
H551        H  0.33838368  0.02740112  0.46406457     0.11000
H552        H  0.30412061  0.03156161  0.49362868     0.11500
H553        H  0.39300047  0.96435357  0.39607274     0.11600
H554        H  0.41851662  0.96209201  0.35410392     0.11500
H555        H  0.38481158  0.01822260  0.31409785     0.11700
H556        H  0.35954331  0.02027648  0.35614460     0.10500
C557        C  0.27736769  0.01269807  0.04229831    -0.03300
C558        C  0.27674365  0.03137732  0.06090241    -0.09100
C559        C  0.29243879  0.03375953  0.08335663    -0.16700
C560        C  0.30892200  0.01750190  0.08752283     0.25400
C561        C  0.30941663  0.99864123  0.06937583    -0.18400
C562        C  0.29369671  0.99623471  0.04692807    -0.07300
C563        C  0.32600356  0.02073010  0.10935658    -0.13800
C564        C  0.34125969  0.02375613  0.12617200    -0.13500
C565        C  0.36078751  0.02727247  0.14405211     0.25300
C566        C  0.38063347  0.03455402  0.13093297    -0.18900
C567        C  0.40012884  0.03662122  0.14750928    -0.07400
C568        C  0.40013346  0.03130098  0.17754277    -0.03400
C569        C  0.37992946  0.02462328  0.19078135    -0.08800
C570        C  0.36037486  0.02264364  0.17411379    -0.16400
H571        H  0.26444587  0.04435025  0.05755857     0.11800
H572        H  0.29196187  0.04849265  0.09713355     0.11000
H573        H  0.32210763  0.98596956  0.07233180     0.11000
H574        H  0.29431415  0.98157843  0.53305416     0.11500
H575        H  0.38116734  0.03817708  0.10769445     0.11600
H576        H  0.41536173  0.04170951  0.13654230     0.11500
H577        H  0.37934953  0.02040203  0.21382749     0.11700
H578        H  0.34508979  0.01703119  0.18452805     0.10500
C579        C  0.77053717  0.99957133  0.44929260    -0.03300
C580        C  0.77206493  0.98152654  0.42976177    -0.09100
C581        C  0.78965527  0.98059431  0.40947045    -0.16700
C582        C  0.80565402  0.99775797  0.40854729     0.25400
C583        C  0.80334698  0.01633213  0.42682271    -0.18400
C584        C  0.78595856  0.01721044  0.44709168    -0.07300
C585        C  0.82551139  0.99585742  0.39089907    -0.13800
C586        C  0.84336356  0.99604491  0.37860702    -0.13500
C587        C  0.86519498  0.99831843  0.36560547     0.25300
C588        C  0.87271900  0.01944637  0.35685456    -0.18900
C589        C  0.89385119  0.02196742  0.34424696    -0.07400
C590        C  0.90783510  0.00334185  0.34016599    -0.03400
C591        C  0.90030432  0.98218818  0.34955484    -0.08800
C592        C  0.87911857  0.97971833  0.36221942    -0.16400
H593        H  0.76058089  0.96757507  0.43146192     0.11800
H594        H  0.79132140  0.96609971  0.39546118     0.11000
H595        H  0.81558834  0.02970044  0.42632576     0.11000
H596        H  0.78513820  0.03121355  0.96206695     0.11500
H597        H  0.86217492  0.03399458  0.35962033     0.11600
H598        H  0.89908405  0.03848213  0.33731531     0.11500
H599        H  0.91064128  0.96750738  0.34677515     0.11700
H600        H  0.87355669  0.96330748  0.36918044     0.10500
C601        C  0.59263343  0.01488015  0.16380665    -0.03300
C602        C  0.58913318  0.02797501  0.13857706    -0.09100
C603        C  0.60342343  0.02608541  0.11443560    -0.16700
C604        C  0.62140019  0.01117711  0.11526878     0.25400
C605        C  0.62548343  0.99873352  0.14065301    -0.18400
C606        C  0.61122125  0.00053842  0.16474374    -0.07300
C607        C  0.63549539  0.00808197  0.09005581    -0.13800
C608        C  0.64855008  0.00423087  0.07059485    -0.13500
C609        C  0.66631739  0.99887477  0.05056613     0.25300
C610        C  0.68183100  0.98249079  0.05848023    -0.18900
C611        C  0.70121778  0.97957633  0.04196688    -0.07400
C612        C  0.70522348  0.99287989  0.01718971    -0.03400
C613        C  0.68892372  0.00826144  0.00813451    -0.08800
C614        C  0.66954381  0.01132204  0.02488468    -0.16400
H615        H  0.57494377  0.03912145  0.13709642     0.11800
H616        H  0.60017689  0.03588380  0.09494393     0.11000
H617        H  0.63944334  0.98724833  0.14160046     0.11000
H618        H  0.61443368  0.99025578  0.18380046     0.11500
H619        H  0.67952905  0.97278827  0.07830450     0.11600
H620        H  0.71369382  0.96777093  0.04940642     0.11500
H621        H  0.69191783  0.01897714  0.98940936     0.11700
H622        H  0.65768609  0.02412300  0.01863882     0.10500
C623        C  0.71900022  0.98925504  0.45171655    -0.03300
C624        C  0.71905955  0.00312917  0.42685933    -0.09100
C625        C  0.70378895  0.99946679  0.40410211    -0.16700
C626        C  0.68832303  0.98188950  0.40593735     0.25400
C627        C  0.68851874  0.96775074  0.43037694    -0.18400
C628        C  0.70376749  0.97137454  0.45305902    -0.07300
C629        C  0.67142563  0.97898304  0.38370873    -0.13800
C630        C  0.65605755  0.97662514  0.36683530    -0.13500
C631        C  0.63637009  0.97414484  0.34886270     0.25300
C632        C  0.61731566  0.96380015  0.36045084    -0.18900
C633        C  0.59758654  0.96275567  0.34410876    -0.07400
C634        C  0.59657072  0.97208172  0.31582695    -0.03400
C635        C  0.61601326  0.98189153  0.30400521    -0.08800
C636        C  0.63574935  0.98294608  0.32045091    -0.16400
H637        H  0.73047683  0.01713776  0.42547146     0.11800
H638        H  0.70373987  0.01060905  0.38538962     0.11000
H639        H  0.67663925  0.95412694  0.43212266     0.11000
H640        H  0.70357570  0.96033580  0.47185426     0.11500
H641        H  0.61755612  0.95695045  0.38241714     0.11600
H642        H  0.58298283  0.95509344  0.35392857     0.11500
H643        H  0.61582349  0.98929779  0.28236641     0.11700
H644        H  0.65036233  0.99104038  0.31123901     0.10500
C645        C  0.98306568  0.09904215  0.32970155    -0.03300
C646        C  0.99665907  0.11824189  0.32838606    -0.09100
C647        C  0.99682954  0.13358277  0.35147007    -0.16700
C648        C  0.98347370  0.12998492  0.37621621     0.25400
C649        C  0.96958438  0.11117028  0.37752591    -0.18400
C650        C  0.96935190  0.09580911  0.35444318    -0.07300
C651        C  0.98422686  0.14560594  0.40020269    -0.13800
C652        C  0.98555929  0.15965473  0.41906606    -0.13500
C653        C  0.98777199  0.17814589  0.43905140     0.25300
C654        C  0.97423306  0.19694868  0.43532807    -0.18900
C655        C  0.97815733  0.21619338  0.45177441    -0.07400
C656        C  0.99564257  0.21691483  0.47227085    -0.03400
C657        C  0.00860811  0.19768327  0.47689163    -0.08800
C658        C  0.00467370  0.17836231  0.46031279    -0.16400
H659        H  0.00741892  0.12126280  0.30972286     0.11800
H660        H  0.00757979  0.14814366  0.35015073     0.11000
H661        H  0.95911347  0.10824209  0.39650939     0.11000
H662        H  0.95872839  0.08119870  0.35623703     0.11500
H663        H  0.96118067  0.19704167  0.41890208     0.11600
H664        H  0.96797486  0.23083595  0.44780416     0.11500
H665        H  0.02244321  0.19796431  0.49214230     0.11700
H666        H  0.01537053  0.16394708  0.46323420     0.10500
C667        C  0.02030193  0.10411060  0.17438063    -0.03300
C668        C  0.01070874  0.12355615  0.18628019    -0.09100
C669        C  0.00935244  0.14317639  0.16958479    -0.16700
C670        C  0.01763137  0.14360365  0.14089453     0.25400
C671        C  0.02770427  0.12452809  0.12921293    -0.18400
C672        C  0.02904759  0.10495188  0.14577098    -0.07300
C673        C  0.01509193  0.16315179  0.12275678    -0.13800
C674        C  0.01303153  0.17837261  0.10561973    -0.13500
C675        C  0.01088389  0.19535167  0.08340392     0.25300
C676        C  0.99214296  0.19559759  0.06503408    -0.18900
C677        C  0.99060380  0.21130729  0.04240699    -0.07400
C678        C  0.00788081  0.22683414  0.03777766    -0.03400
C679        C  0.02649670  0.22666540  0.05652744    -0.08800
C680        C  0.02798780  0.21102014  0.07919762    -0.16400
H681        H  0.00377832  0.12346128  0.20818329     0.11800
H682        H  0.00149635  0.15785298  0.17884827     0.11000
H683        H  0.03416972  0.12465170  0.10704763     0.11000
H684        H  0.03658175  0.09034407  0.13590300     0.11500
H685        H  0.97882526  0.18352016  0.06803315     0.11600
H686        H  0.97598637  0.21134629  0.02846709     0.11500
H687        H  0.04004066  0.23842349  0.05323990     0.11700
H688        H  0.04261989  0.21093236  0.09315317     0.10500
C689        C  0.01381553  0.27818248  0.04279854    -0.03300
C690        C  0.99807734  0.27618979  0.06549157    -0.09100
C691        C  0.99742864  0.29207605  0.08794798    -0.16700
C692        C  0.01259606  0.30994294  0.08796395     0.25400
C693        C  0.02911782  0.31122524  0.06633186    -0.18400
C694        C  0.02967675  0.29548335  0.04381111    -0.07300
C695        C  0.00982970  0.32828237  0.10798381    -0.13800
C696        C  0.00736025  0.34512825  0.12206895    -0.13500
C697        C  0.00469253  0.36640321  0.13631590     0.25300
C698        C  0.02294892  0.38092939  0.13861303    -0.18900
C699        C  0.02030603  0.40203475  0.15120000    -0.07400
C700        C  0.99928760  0.40897276  0.16158788    -0.03400
C701        C  0.98101116  0.39421991  0.15921983    -0.08800
C702        C  0.98371747  0.37308195  0.14664033    -0.16400
H703        H  0.98538151  0.26328293  0.06480617     0.11800
H704        H  0.98445202  0.29103223  0.10444420     0.11000
H705        H  0.04087676  0.32501876  0.06605472     0.11000
H706        H  0.04184323  0.29738720  0.02641056     0.11500
H707        H  0.03922142  0.37599699  0.13048921     0.11600
H708        H  0.03473322  0.41292297  0.15272772     0.11500
H709        H  0.96463566  0.39897481  0.16712356     0.11700
H710        H  0.96943217  0.36202015  0.14479567     0.10500
C711        C  0.99708893  0.79224535  0.01928708    -0.03300
C712        C  0.98234880  0.81018259  0.01494039    -0.09100
C713        C  0.98512438  0.83003522  0.03076984    -0.16700
C714        C  0.00271530  0.83208107  0.05085014     0.25400
C715        C  0.01789956  0.81454391  0.05433486    -0.18400
C716        C  0.01504641  0.79471125  0.03875774    -0.07300
C717        C  0.00423741  0.85113797  0.06992139    -0.13800
C718        C  0.00567584  0.86543747  0.08839632    -0.13500
C719        C  0.00727781  0.88088869  0.11242825     0.25300
C720        C  0.01937737  0.90079445  0.10947036    -0.18900
C721        C  0.02089526  0.91567103  0.13299587    -0.07400
C722        C  0.01023991  0.91084119  0.15978001    -0.03400
C723        C  0.99831914  0.89065948  0.16259120    -0.08800
C724        C  0.99691358  0.87578471  0.13909324    -0.16400
H725        H  0.96817018  0.80845763  0.00040155     0.11800
H726        H  0.97315233  0.84344243  0.02810579     0.11000
H727        H  0.03149167  0.81589583  0.06989078     0.11000
H728        H  0.02653831  0.78102839  0.04245648     0.11500
H729        H  0.02752356  0.90487719  0.08895643     0.11600
H730        H  0.03003506  0.93114703  0.13001063     0.11500
H731        H  0.98990118  0.88644575  0.18285644     0.11700
H732        H  0.98761086  0.86034967  0.14167006     0.10500
C733        C  0.98722677  0.78168348  0.45414591    -0.03300
C734        C  0.96846410  0.78241606  0.43573079    -0.09100
C735        C  0.96699666  0.79853728  0.41360541    -0.16700
C736        C  0.98432621  0.81401011  0.40955866     0.25400
C737        C  0.00320330  0.81317749  0.42764501    -0.18400
C738        C  0.00465689  0.79708709  0.44979869    -0.07300
C739        C  0.98242876  0.83119675  0.38755079    -0.13800
C740        C  0.98062397  0.84634621  0.37023576    -0.13500
C741        C  0.97823177  0.86559978  0.35149299     0.25300
C742        C  0.98836134  0.86628338  0.32383081    -0.18900
C743        C  0.98696253  0.88564094  0.30659260    -0.07400
C744        C  0.97552343  0.90458461  0.31696650    -0.03400
C745        C  0.96496170  0.90345988  0.34448678    -0.08800
C746        C  0.96630744  0.88413655  0.36155194    -0.16400
H747        H  0.95480282  0.77078147  0.43892407     0.11800
H748        H  0.95224983  0.79909278  0.39987904     0.11000
H749        H  0.01669417  0.82508016  0.42479085     0.11000
H750        H  0.01932078  0.79666133  0.46365542     0.11500
H751        H  0.99766494  0.85202928  0.31582324     0.11600
H752        H  0.99535256  0.88600024  0.28558612     0.11500
H753        H  0.95594389  0.91767829  0.35311913     0.11700
H754        H  0.95837349  0.88381363  0.38287991     0.10500
C755        C  0.99754336  0.59782867  0.33434698    -0.03300
C756        C  0.01599765  0.61221318  0.33788894    -0.09100
C757        C  0.01311988  0.63375927  0.34915488    -0.16700
C758        C  0.99178845  0.64125765  0.35693718     0.25400
C759        C  0.97333673  0.62712058  0.35340976    -0.18400
C760        C  0.97615980  0.60558349  0.34217341    -0.07300
C761        C  0.98894245  0.66290003  0.37018352    -0.13800
C762        C  0.98639122  0.67994664  0.38384174    -0.13500
C763        C  0.98342420  0.69825666  0.40388116     0.25300
C764        C  0.96763477  0.69625430  0.42632732    -0.18900
C765        C  0.96699895  0.71197887  0.44884120    -0.07400
C766        C  0.98206772  0.72999429  0.44911496    -0.03400
C767        C  0.99705057  0.73267341  0.42566137    -0.08800
C768        C  0.99776380  0.71680105  0.40315461    -0.16400
H769        H  0.03266223  0.60683982  0.33195952     0.11800
H770        H  0.02755375  0.64449493  0.35201614     0.11000
H771        H  0.95677058  0.63267777  0.35958157     0.11000
H772        H  0.96157475  0.59502734  0.33960244     0.11500
H773        H  0.95653730  0.68193580  0.42720783     0.11600
H774        H  0.95540712  0.70953130  0.46679176     0.11500
H775        H  0.00916882  0.74613175  0.42572727     0.11700
H776        H  0.01019246  0.71841052  0.38602365     0.10500
N777        N  0.98824762  0.76572535  0.97773829    -0.03400
C778        C  0.98452439  0.74337779  0.97610716    -0.00800
C779        C  0.98639827  0.73375926  0.50354788    -0.23700
C780        C  0.99166104  0.75067578  0.52264567    -0.23900
C781        C  0.99262313  0.77010244  0.50630613    -0.00900
H782        H  0.98494156  0.71619484  0.50892428     0.12800
H783        H  0.99439281  0.74901227  0.54596250     0.12900
N784        N  0.00673582  0.24272683  0.51407564    -0.03400
C785        C  0.01134406  0.26492235  0.51572433    -0.00800
C786        C  0.00963458  0.27472330  0.98842054    -0.23700
C787        C  0.00344739  0.25812597  0.96935263    -0.23900
C788        C  0.00175180  0.23864558  0.98554415    -0.00900
H789        H  0.01161968  0.29226117  0.98318036     0.12800
H790        H  0.00043444  0.26007456  0.94613319     0.12900
N791        N  0.73370363  0.99368588  0.97607055    -0.03400
C792        C  0.75590363  0.99849967  0.97529804    -0.00800
C793        C  0.76406572  0.00143412  0.50334303    -0.23700
C794        C  0.74643225  0.99833637  0.52206358    -0.23900
C795        C  0.72800996  0.99378128  0.50487618    -0.00900
H796        H  0.78109200  0.00531163  0.50952426     0.12800
H797        H  0.74680291  0.00009760  0.54563644     0.12900
N798        N  0.26176040  0.01080600  0.51839680    -0.03400
C799        C  0.23940361  0.01454671  0.51940003    -0.00800
C800        C  0.23005274  0.01186324  0.99198295    -0.23700
C801        C  0.24714113  0.00612029  0.97343745    -0.23900
C802        C  0.26641384  0.00566608  0.99007497    -0.00900
H803        H  0.21255986  0.01325610  0.98628712     0.12800
H804        H  0.24572058  0.00286879  0.95021087     0.12900
N805        N  0.49217715  0.74017320  0.97998351    -0.03400
C806        C  0.48777693  0.76232322  0.97725445    -0.00800
C807        C  0.48457508  0.77191114  0.50443115    -0.23700
C808        C  0.48713021  0.75516346  0.52468363    -0.23900
C809        C  0.49159761  0.73585134  0.50917658    -0.00900
H810        H  0.48101748  0.78928612  0.50902545     0.12800
H811        H  0.48527985  0.75676704  0.54815552     0.12900
N812        N  0.49570453  0.26618811  0.52014228    -0.03400
C813        C  0.49935444  0.24390101  0.52265221    -0.00800
C814        C  0.50019694  0.23414905  0.99525270    -0.23700
C815        C  0.49704429  0.25096894  0.97522359    -0.23900
C816        C  0.49455026  0.27052761  0.99099356    -0.00900
H817        H  0.50289659  0.21666848  0.99034806     0.12800
H818        H  0.49753660  0.24923791  0.95165432     0.12900
N819        N  0.23563947  0.49680855  0.51624427    -0.03400
C820        C  0.25797791  0.49302770  0.51731093    -0.00800
C821        C  0.26732979  0.49514854  0.98977761    -0.23700
C822        C  0.25027399  0.50062077  0.97110812    -0.23900
C823        C  0.23099655  0.50152865  0.98778729    -0.00900
H824        H  0.28482870  0.49373533  0.98408087     0.12800
H825        H  0.25176941  0.50355268  0.94780434     0.12900
N826        N  0.76031095  0.50764511  0.98082972    -0.03400
C827        C  0.73789589  0.51111930  0.97903868    -0.00800
C828        C  0.72805384  0.50839202  0.50620705    -0.23700
C829        C  0.74479991  0.50289012  0.52534805    -0.23900
C830        C  0.76441190  0.50260166  0.50937862    -0.00900
H831        H  0.71044469  0.50959312  0.51137958     0.12800
H832        H  0.74291130  0.49961849  0.54852500     0.12900
O833        O  0.48347868  0.51295237  0.69941403    -0.88300
C834        C  0.47292642  0.54396982  0.77714932     0.87700
Mg835      Mg  0.47455223  0.47897072  0.69206546     1.58100
O836        O  0.52877907  0.53055870  0.76310122    -0.88000
O837        O  0.51333236  0.53427658  0.69758131    -0.75400
C838        C  0.51252390  0.42645430  0.81039055     0.92800
O839        O  0.44391789  0.50511310  0.74570165    -0.75200
O840        O  0.49834299  0.42418596  0.78983642    -0.82700
Mg841      Mg  0.45824432  0.53390612  0.71800951     1.58000
C842        C  0.56887380  0.50179253  0.82453182     0.92700
O843        O  0.46965798  0.56325643  0.68910324    -0.80900
H844        H  0.55573286  0.53259829  0.73732587    -0.06300
C845        C  0.49434291  0.48732908  0.81422875     0.87600
O846        O  0.51073162  0.46808469  0.70108766    -0.75500
O847        O  0.48095452  0.54243315  0.75225320    -0.88200
O848        O  0.55675734  0.51906008  0.82057431    -0.81000
C849        C  0.52074839  0.58166101  0.80409911     0.92800
C850        C  0.48252611  0.58022835  0.69024301     0.92700
Mg851      Mg  0.53656063  0.47299352  0.78268124     1.58000
O852        O  0.52546739  0.44338999  0.81175404    -0.80900
O853        O  0.55048934  0.50176099  0.75460745    -0.75200
O854        O  0.51279560  0.58077598  0.77819002    -0.81000
O855        O  0.43296879  0.52477208  0.68339219    -0.82700
O856        O  0.48194690  0.42625106  0.72246920    -0.81100
C857        C  0.54548517  0.52226599  0.75141335     0.87100
O858        O  0.51365291  0.46445895  0.74869084    -0.88200
O859        O  0.51139327  0.49394005  0.80146782    -0.88300
O860        O  0.48130264  0.47286521  0.80301810    -0.75400
Mg861      Mg  0.51243109  0.55620964  0.73893452     1.58000
O862        O  0.52830903  0.56435368  0.81689043    -0.82700
H863        H  0.50462662  0.51249263  0.66550568    -0.06500
O864        O  0.46568162  0.47633647  0.73733301    -0.88000
H865        H  0.43843242  0.47417801  0.76256368    -0.06300
H866        H  0.53882592  0.45728583  0.72149613    -0.06500
C867        C  0.44884893  0.48457763  0.74877578     0.87100
C868        C  0.50038517  0.51969518  0.68648134     0.87700
C869        C  0.52172315  0.46279169  0.72385147     0.87700
H870        H  0.49003572  0.49458705  0.83514875    -0.06400
O871        O  0.48401859  0.53871899  0.79986948    -0.75500
Mg872      Mg  0.48216672  0.45079423  0.76179033     1.58000
H873        H  0.45578679  0.54934073  0.77959530    -0.06500
C874        C  0.42667475  0.50565401  0.67444194     0.92700
O875        O  0.46665151  0.44267183  0.68356975    -0.82700
C876        C  0.47420806  0.42538899  0.69643585     0.92800
O877        O  0.49641495  0.58289945  0.71102939    -0.82700
Mg878      Mg  0.52037000  0.52800480  0.80844235     1.58200
O879        O  0.43850213  0.48819935  0.67854156    -0.81000
O880        O  0.56234834  0.48242573  0.81676861    -0.82700
O881        O  0.50845206  0.01681051  0.69683716    -0.88300
C882        C  0.54032522  0.02327379  0.77482076     0.87700
Mg883      Mg  0.47502175  0.02784519  0.68989819     1.58100
O884        O  0.52348350  0.96861254  0.75843847    -0.88000
O885        O  0.52796888  0.98585528  0.69363226    -0.75400
C886        C  0.42032637  0.99010735  0.80656122     0.92800
O887        O  0.50296474  0.05502370  0.74526569    -0.75200
O888        O  0.41862760  0.00478150  0.78649458    -0.82700
Mg889      Mg  0.53086025  0.04021876  0.71666938     1.58000
C890        C  0.49175325  0.92919933  0.81825430     0.92700
O891        O  0.55964095  0.02825556  0.68706833    -0.80900
H892        H  0.52364092  0.94232271  0.73144781    -0.06300
C893        C  0.48219960  0.00433470  0.81082899     0.87600
O894        O  0.46206172  0.99204865  0.69695484    -0.75500
O895        O  0.53811035  0.01601262  0.74963719    -0.88200
O896        O  0.50992525  0.94014651  0.81504076    -0.81000
C897        C  0.57498783  0.97301889  0.79978552     0.92800
C898        C  0.57591229  0.01453309  0.68774348     0.92700
Mg899      Mg  0.46528870  0.96410546  0.77738757     1.58000
O900        O  0.43649662  0.97624091  0.80709581    -0.80900
O901        O  0.49318470  0.94920321  0.74877295    -0.75200
O902        O  0.57443507  0.98140656  0.77407018    -0.81000
O903        O  0.52303920  0.06726256  0.68369652    -0.82700
O904        O  0.42187289  0.02280144  0.71994250    -0.81100
C905        C  0.51402800  0.95285408  0.74595302     0.87100
O906        O  0.45805264  0.98821685  0.74442078    -0.88200
O907        O  0.48787168  0.98738600  0.79719940    -0.88300
O908        O  0.46837576  0.01836489  0.80037731    -0.75400
Mg909      Mg  0.55000261  0.98427979  0.73487912     1.58000
O910        O  0.55731541  0.96610909  0.81249722    -0.82700
H911        H  0.50668198  0.99660792  0.66206255    -0.06500
O912        O  0.47279489  0.03545635  0.73556052    -0.88000
H913        H  0.47245901  0.06175884  0.76251841    -0.06300
H914        H  0.44943831  0.96416399  0.71621519    -0.06500
C915        C  0.48214468  0.05127350  0.74803876     0.87100
C916        C  0.51416095  0.99989083  0.68317457     0.87700
C917        C  0.45597293  0.98086005  0.71925835     0.87700
H918        H  0.48970552  0.00763683  0.83191830    -0.06400
O919        O  0.53440155  0.01196901  0.79710123    -0.75500
Mg920      Mg  0.44626904  0.02000034  0.75916549     1.58000
H921        H  0.54688531  0.03995348  0.77791892    -0.06500
C922        C  0.50420211  0.07507372  0.67588020     0.92700
O923        O  0.43918466  0.03771213  0.68140203    -0.82700
C924        C  0.42147872  0.03087849  0.69405439     0.92800
O925        O  0.57762058  0.99981001  0.70775324    -0.82700
Mg926      Mg  0.52133925  0.97618352  0.80413530     1.58200
O927        O  0.48616779  0.06392607  0.67912963    -0.81000
O928        O  0.47302543  0.93713420  0.81024670    -0.82700
O929        O  0.00968757  0.99489232  0.69390685    -0.88300
C930        C  0.02299223  0.96330898  0.77021243     0.87700
Mg931      Mg  0.01859418  0.02893570  0.68643396     1.58100
O932        O  0.96672014  0.97703925  0.76009264    -0.88000
O933        O  0.97979133  0.97356724  0.69359840    -0.75400
C934        C  0.98413289  0.08185880  0.80632012     0.92800
O935        O  0.05037690  0.00235925  0.73806566    -0.75200
O936        O  0.99805517  0.08425539  0.78541782    -0.82700
Mg937      Mg  0.03547120  0.97372096  0.71060848     1.58000
C938        C  0.92954716  0.00587981  0.82480092     0.92700
O939        O  0.02305417  0.94447057  0.68200547    -0.80900
H940        H  0.93884175  0.97530247  0.73609510    -0.06300
C941        C  0.00281962  0.02078076  0.80936053     0.87600
O942        O  0.98269626  0.03993943  0.69709833    -0.75500
O943        O  0.01397062  0.96477736  0.74592588    -0.88200
O944        O  0.94149686  0.98863864  0.82002153    -0.81000
C945        C  0.97574585  0.92594688  0.80043937     0.92800
C946        C  0.01027857  0.92742439  0.68385642     0.92700
Mg947      Mg  0.95975200  0.03488057  0.78011066     1.58000
O948        O  0.97147504  0.06472256  0.80811573    -0.80900
O949        O  0.94495376  0.00604913  0.75304159    -0.75200
O950        O  0.98261254  0.92642666  0.77393941    -0.81000
O951        O  0.06005961  0.98327268  0.67498986    -0.82700
O952        O  0.01300361  0.08209403  0.71711682    -0.81100
C953        C  0.94967448  0.98551069  0.74952392     0.87100
O954        O  0.98133946  0.04387318  0.74479889    -0.88200
O955        O  0.98569639  0.01394664  0.79708975    -0.88300
O956        O  0.01537883  0.03549500  0.79776563    -0.75400
Mg957      Mg  0.98198028  0.95129780  0.73466405     1.58000
O958        O  0.96953479  0.94357229  0.81366648    -0.82700
H959        H  0.98740161  0.99565684  0.66131310    -0.06500
O960        O  0.02867745  0.03149745  0.73127943    -0.88000
H961        H  0.05644168  0.03295017  0.75555301    -0.06300
H962        H  0.95535157  0.05103128  0.71896343    -0.06500
C963        C  0.04564632  0.02287982  0.74189733     0.87100
C964        C  0.99234718  0.98826981  0.68192573     0.87700
C965        C  0.97249027  0.04545544  0.72040759     0.87700
H966        H  0.00758111  0.01356324  0.83014988    -0.06400
O967        O  0.01297071  0.96895448  0.79359388    -0.75500
Mg968      Mg  0.01332412  0.05742343  0.75646102     1.58000
H969        H  0.04015257  0.95777521  0.77147853    -0.06500
C970        C  0.06638836  0.00269695  0.66715864     0.92700
O971        O  0.02648992  0.06510054  0.67754387    -0.82700
C972        C  0.02008022  0.08266921  0.69072872     0.92800
O973        O  0.99699095  0.92467889  0.70536915    -0.82700
Mg974      Mg  0.97714199  0.97979267  0.80474116     1.58200
O975        O  0.05442433  0.01992050  0.67199663    -0.81000
O976        O  0.93549878  0.02519200  0.81601741    -0.82700
O977        O  0.98906458  0.48858601  0.69858013    -0.88300
C978        C  0.95803022  0.47864332  0.77658514     0.87700
Mg979      Mg  0.02322618  0.47962881  0.69128271     1.58100
O980        O  0.97144310  0.53446160  0.76145933    -0.88000
O981        O  0.96751563  0.51822360  0.69640959    -0.75400
C982        C  0.07530951  0.51854186  0.80893431     0.92800
O983        O  0.99685162  0.44972960  0.74562891    -0.75200
O984        O  0.07799512  0.50438188  0.78845708    -0.82700
Mg985      Mg  0.96798045  0.46343412  0.71765067     1.58000
C986        C  0.00039298  0.57522266  0.82156080     0.92700
O987        O  0.93815082  0.47438458  0.68859637    -0.80900
H988        H  0.96956226  0.56095883  0.73484651    -0.06300
C989        C  0.01481046  0.50064534  0.81273864     0.87600
O990        O  0.03430071  0.51589295  0.69931648    -0.75500
O991        O  0.95948195  0.48645361  0.75155087    -0.88200
O992        O  0.98325299  0.56280249  0.81815583    -0.81000
C993        C  0.92069244  0.52628079  0.80368409     0.92800
C994        C  0.92110661  0.48714631  0.69014272     0.92700
Mg995      Mg  0.02919097  0.54246569  0.78030330     1.58000
O996        O  0.05840702  0.53148218  0.80975932    -0.80900
O997        O  0.00042887  0.55589462  0.75196253    -0.75200
O998        O  0.92132456  0.51818473  0.77781993    -0.81000
O999        O  0.97733848  0.43745740  0.68375834    -0.82700
O1000       O  0.07636782  0.48684723  0.72147473    -0.81100
C1001       C  0.97985633  0.55092527  0.74917013     0.87100
O1002       O  0.03793494  0.51919678  0.74685035    -0.88200
O1003       O  0.00819010  0.51745403  0.79952012    -0.88300
O1004       O  0.02932667  0.48753797  0.80189415    -0.75400
Mg1005     Mg  0.94565332  0.51770155  0.73800122     1.58000
O1006       O  0.93807363  0.53422208  0.81589117    -0.82700
H1007       H  0.98938281  0.50951600  0.66440736    -0.06500
O1008       O  0.02587858  0.47121739  0.73667529    -0.88000
H1009       H  0.02767217  0.44441152  0.76275892    -0.06300
H1010       H  0.04541447  0.54408667  0.71926286    -0.06500
C1011       C  0.01742179  0.45463225  0.74860941     0.87100
C1012       C  0.98222178  0.50535631  0.68546713     0.87700
C1013       C  0.03972798  0.52703778  0.72188853     0.87700
H1014       H  0.00752030  0.49660858  0.83376425    -0.06400
O1015       O  0.96343730  0.48993626  0.79906564    -0.75500
Mg1016     Mg  0.05149868  0.48786476  0.76069758     1.58000
H1017       H  0.95260320  0.46152424  0.77936050    -0.06500
C1018       C  0.99665625  0.43119126  0.67550065     0.92700
O1019       O  0.05974638  0.47167803  0.68266248    -0.82700
C1020       C  0.07720266  0.47891897  0.69552557     0.92800
O1021       O  0.91881283  0.50121851  0.71079199    -0.82700
Mg1022     Mg  0.97426831  0.52637377  0.80686680     1.58200
O1023       O  0.01390330  0.44342862  0.67921109    -0.81000
O1024       O  0.01977507  0.56884793  0.81373014    -0.82700
C1025       C  0.78636973  0.49816620  0.52305017    -0.03300
C1026       C  0.80423499  0.51327597  0.52013317    -0.09100
C1027       C  0.82358213  0.51059116  0.53709485    -0.16700
C1028       C  0.82520934  0.49275013  0.55694466     0.25400
C1029       C  0.80775504  0.47725973  0.55906579    -0.18400
C1030       C  0.78845549  0.47998937  0.54232904    -0.07300
C1031       C  0.84380449  0.49109109  0.57688025    -0.13800
C1032       C  0.85792309  0.48957278  0.59564349    -0.13500
C1033       C  0.87346130  0.48824367  0.61969888     0.25300
C1034       C  0.87074675  0.50228826  0.64389607    -0.18900
C1035       C  0.88583587  0.50140319  0.66719890    -0.07400
C1036       C  0.90396204  0.48643111  0.66668125    -0.03400
C1037       C  0.90632623  0.47205164  0.64249530    -0.08800
C1038       C  0.89115142  0.47295765  0.61917937    -0.16400
H1039       H  0.80279621  0.52765113  0.50584301     0.11800
H1040       H  0.83691499  0.52280436  0.53544249     0.11000
H1041       H  0.80874213  0.46347103  0.57440265     0.11000
H1042       H  0.77481427  0.46823318  0.54504517     0.11500
H1043       H  0.85706318  0.51410790  0.64463473     0.11600
H1044       H  0.88351840  0.51277615  0.68536629     0.11500
H1045       H  0.92011529  0.46039614  0.64132509     0.11700
H1046       H  0.89335434  0.46190849  0.60063511     0.10500
C1047       C  0.77646593  0.50939300  0.95744248    -0.03300
C1048       C  0.77599520  0.52764783  0.93804021    -0.09100
C1049       C  0.79213298  0.52976725  0.91599830    -0.16700
C1050       C  0.80898925  0.51370392  0.91313564     0.25400
C1051       C  0.80940371  0.49534529  0.93217825    -0.18400
C1052       C  0.79319210  0.49313697  0.95408106    -0.07300
C1053       C  0.82630936  0.51639602  0.89139805    -0.13800
C1054       C  0.84157943  0.51871608  0.87433693    -0.13500
C1055       C  0.86082096  0.52160416  0.85562627     0.25300
C1056       C  0.86160605  0.51167542  0.82787915    -0.18900
C1057       C  0.88080146  0.51375228  0.81046163    -0.07400
C1058       C  0.89951308  0.52573082  0.82065919    -0.03400
C1059       C  0.89835686  0.53595045  0.84838008    -0.08800
C1060       C  0.87918031  0.53389576  0.86566626    -0.16400
H1061       H  0.76339111  0.54047723  0.94034879     0.11800
H1062       H  0.79165825  0.54409138  0.90148765     0.11000
H1063       H  0.82235500  0.48280632  0.93022601     0.11000
H1064       H  0.79372181  0.47877131  0.96847572     0.11500
H1065       H  0.84752622  0.50205490  0.81988860     0.11600
H1066       H  0.88118519  0.50553942  0.78935853     0.11500
H1067       H  0.91242989  0.54525190  0.85698509     0.11700
H1068       H  0.87881208  0.54163126  0.88709614     0.10500
C1069       C  0.72454694  0.51471323  0.95217945    -0.03300
C1070       C  0.72678643  0.50053649  0.92784860    -0.09100
C1071       C  0.71071894  0.50084615  0.90550192    -0.16700
C1072       C  0.69242126  0.51540284  0.90729602     0.25400
C1073       C  0.69089590  0.53040166  0.93065240    -0.18400
C1074       C  0.70680208  0.53003198  0.95295217    -0.07300
C1075       C  0.67385041  0.51345803  0.88738608    -0.13800
C1076       C  0.65659002  0.51167912  0.87392540    -0.13500
C1077       C  0.63481915  0.50929862  0.86078652     0.25300
C1078       C  0.62143025  0.52811978  0.85603549    -0.18900
C1079       C  0.59986393  0.52569944  0.84461349    -0.07400
C1080       C  0.59136240  0.50436538  0.83781467    -0.03400
C1081       C  0.60496252  0.48555350  0.84273627    -0.08800
C1082       C  0.62649923  0.48802363  0.85417454    -0.16400
H1083       H  0.74005162  0.48827033  0.42706402     0.11800
H1084       H  0.71197814  0.48902563  0.88763835     0.11000
H1085       H  0.67678841  0.54165190  0.93238470     0.11000
H1086       H  0.70467337  0.54101357  0.97157756     0.11500
H1087       H  0.62761276  0.54466408  0.86130741     0.11600
H1088       H  0.58991116  0.54053980  0.84098098     0.11500
H1089       H  0.59899859  0.46889944  0.83769555     0.11700
H1090       H  0.63661831  0.47331425  0.85800993     0.10500
C1091       C  0.20886615  0.50639708  0.97498016    -0.03300
C1092       C  0.20719884  0.52318784  0.95357362    -0.09100
C1093       C  0.18747221  0.52605992  0.93785709    -0.16700
C1094       C  0.16912218  0.51218509  0.94327097     0.25400
C1095       C  0.17035480  0.49578372  0.96515137    -0.18400
C1096       C  0.19018417  0.49288935  0.98099586    -0.07300
C1097       C  0.14994030  0.51379286  0.92449273    -0.13800
C1098       C  0.13571062  0.51529986  0.90596881    -0.13500
C1099       C  0.12069530  0.51671312  0.88150146     0.25300
C1100       C  0.10192509  0.53059289  0.88256205    -0.18900
C1101       C  0.08749207  0.53181937  0.85853556    -0.07400
C1102       C  0.09169505  0.51913095  0.83317614    -0.03400
C1103       C  0.11082456  0.50552355  0.83222876    -0.08800
C1104       C  0.12520830  0.50436237  0.85621463    -0.16400
H1105       H  0.22142499  0.53371147  0.94844031     0.11800
H1106       H  0.18677012  0.53866330  0.92082326     0.11000
H1107       H  0.15630383  0.48477304  0.96924819     0.11000
H1108       H  0.19124232  0.47946071  0.99683219     0.11500
H1109       H  0.09835636  0.54031325  0.90199976     0.11600
H1110       H  0.07281634  0.54231285  0.86006947     0.11500
H1111       H  0.11451805  0.49548420  0.81312660     0.11700
H1112       H  0.13978561  0.49368053  0.85511462     0.10500
C1113       C  0.09879058  0.47887634  0.67928726    -0.03300
C1114       C  0.11777366  0.48993256  0.69044610    -0.09100
C1115       C  0.13728368  0.49186702  0.67353914    -0.16700
C1116       C  0.13813949  0.48268808  0.64533685     0.25400
C1117       C  0.11962423  0.47099874  0.63455060    -0.18400
C1118       C  0.10014450  0.46909606  0.65131754    -0.07300
C1119       C  0.15742840  0.48599913  0.62670312    -0.13800
C1120       C  0.17240186  0.48859578  0.60919515    -0.13500
C1121       C  0.18915844  0.49120574  0.58659500     0.25300
C1122       C  0.20411895  0.47380505  0.58065053    -0.18900
C1123       C  0.21954717  0.47581046  0.55773960    -0.07400
C1124       C  0.22010947  0.49516456  0.54031309    -0.03400
C1125       C  0.20524749  0.51267084  0.54650438    -0.08800
C1126       C  0.18988407  0.51071104  0.56954634    -0.16400
H1127       H  0.11733241  0.49767579  0.71185092     0.11800
H1128       H  0.15149061  0.50094274  0.68220365     0.11000
H1129       H  0.12004748  0.46376733  0.61282298     0.11000
H1130       H  0.08594357  0.46039687  0.64203033     0.11500
H1131       H  0.20367484  0.45857551  0.59348685     0.11600
H1132       H  0.23080823  0.46210451  0.05318459     0.11500
H1133       H  0.20555863  0.52777882  0.53344916     0.11700
H1134       H  0.17839086  0.52428715  0.57383088     0.10500
C1135       C  0.27170075  0.49047910  0.54391135    -0.03300
C1136       C  0.28949429  0.47523635  0.54370447    -0.09100
C1137       C  0.30586111  0.47606638  0.56537544    -0.16700
C1138       C  0.30470143  0.49221195  0.58741985     0.25400
C1139       C  0.28635134  0.50669696  0.58873596    -0.18400
C1140       C  0.26982640  0.50578641  0.56707392    -0.07300
C1141       C  0.32355018  0.49519183  0.60651934    -0.13800
C1142       C  0.34083108  0.49740139  0.61973320    -0.13500
C1143       C  0.36239294  0.49954304  0.63334467     0.25300
C1144       C  0.36967623  0.52031154  0.64366599    -0.18900
C1145       C  0.39074066  0.52237738  0.65660480    -0.07400
C1146       C  0.40482014  0.50365312  0.65940236    -0.03400
C1147       C  0.39744297  0.48290824  0.64856764    -0.08800
C1148       C  0.37638184  0.48090413  0.63559252    -0.16400
H1149       H  0.29131198  0.46342735  0.02590953     0.11800
H1150       H  0.32001448  0.46483826  0.56409436     0.11000
H1151       H  0.28538870  0.51936715  0.60560541     0.11000
H1152       H  0.25652360  0.51802702  0.56729331     0.11500
H1153       H  0.35905976  0.53489072  0.64179039     0.11600
H1154       H  0.39588523  0.53859785  0.66468133     0.11500
H1155       H  0.40786238  0.46819047  0.65028673     0.11700
H1156       H  0.37097828  0.46479160  0.62739172     0.10500
C1157       C  0.50323630  0.09795980  0.66344382    -0.03300
C1158       C  0.52294681  0.11053787  0.65971414    -0.09100
C1159       C  0.52204231  0.13245573  0.64918958    -0.16700
C1160       C  0.50146528  0.14217778  0.64231048     0.25400
C1161       C  0.48175717  0.12981456  0.64580770    -0.18400
C1162       C  0.48260867  0.10785586  0.65634096    -0.07300
C1163       C  0.50081606  0.16428967  0.62988706    -0.13800
C1164       C  0.50119066  0.18170073  0.61657843    -0.13500
C1165       C  0.50269100  0.20004714  0.59628034     0.25300
C1166       C  0.48654088  0.21699858  0.59585588    -0.18900
C1167       C  0.48618800  0.23250943  0.57281318    -0.07400
C1168       C  0.50192268  0.23100042  0.55005078    -0.03400
C1169       C  0.51873202  0.21471200  0.55158627    -0.08800
C1170       C  0.51913842  0.19938876  0.57456460    -0.16400
H1171       H  0.53909925  0.10348407  0.66499992     0.11800
H1172       H  0.53742532  0.14177485  0.64623480     0.11000
H1173       H  0.46575165  0.13709288  0.64022803     0.11000
H1174       H  0.46712260  0.09868857  0.65904310     0.11500
H1175       H  0.47363827  0.21756588  0.61247834     0.11600
H1176       H  0.47287066  0.24470838  0.57184829     0.11500
H1177       H  0.53103086  0.21326821  0.53428326     0.11700
H1178       H  0.53166064  0.18632758  0.57460369     0.10500
C1179       C  0.51312652  0.40946638  0.83404217    -0.03300
C1180       C  0.52678326  0.41243744  0.85885693    -0.09100
C1181       C  0.52539404  0.39758742  0.88253178    -0.16700
C1182       C  0.51038222  0.37962121  0.88165029     0.25400
C1183       C  0.49723502  0.37621010  0.85675408    -0.18400
C1184       C  0.49858050  0.39097426  0.83313612    -0.07300
C1185       C  0.50804953  0.36462935  0.90614360    -0.13800
C1186       C  0.50473271  0.35065797  0.92470325    -0.13500
C1187       C  0.49997592  0.33204689  0.94372684     0.25300
C1188       C  0.48544122  0.31526293  0.93409626    -0.18900
C1189       C  0.48262417  0.29580654  0.95058016    -0.07400
C1190       C  0.49428036  0.29286813  0.97698519    -0.03400
C1191       C  0.50813481  0.31019904  0.98719648    -0.08800
C1192       C  0.51094560  0.32971858  0.97062697    -0.16400
H1193       H  0.53810864  0.42652994  0.86030719     0.11800
H1194       H  0.53574018  0.40032051  0.90165128     0.11000
H1195       H  0.48564513  0.36229171  0.85577458     0.11000
H1196       H  0.48781636  0.38816842  0.81444979     0.11500
H1197       H  0.47690166  0.31685543  0.91329012     0.11600
H1198       H  0.47194988  0.28266206  0.94216723     0.11500
H1199       H  0.51782111  0.30816038  0.00700435     0.11700
H1200       H  0.52234861  0.34254908  0.97819970     0.10500
C1201       C  0.49282560  0.28198050  0.54354993    -0.03300
C1202       C  0.50923357  0.28440389  0.56526642    -0.09100
C1203       C  0.50659925  0.30027632  0.58748832    -0.16700
C1204       C  0.48744998  0.31370953  0.58828969     0.25400
C1205       C  0.47094281  0.31114545  0.56683568    -0.18400
C1206       C  0.47364599  0.29541243  0.54453514    -0.07300
C1207       C  0.48497821  0.33067585  0.61040815    -0.13800
C1208       C  0.48251827  0.34580463  0.62754780    -0.13500
C1209       C  0.47926305  0.36504423  0.64599415     0.25300
C1210       C  0.46654226  0.38299474  0.63571624    -0.18900
C1211       C  0.46430712  0.40232079  0.65257522    -0.07400
C1212       C  0.47476709  0.40400135  0.68007920    -0.03400
C1213       C  0.48706278  0.38563533  0.69061189    -0.08800
C1214       C  0.48933960  0.36629954  0.67360810    -0.16400
H1215       H  0.52419876  0.27427453  0.56463905     0.11800
H1216       H  0.51954828  0.30221028  0.60384694     0.11000
H1217       H  0.45608794  0.32146981  0.56717822     0.11000
H1218       H  0.46082746  0.29366152  0.52798459     0.11500
H1219       H  0.45866970  0.38222054  0.61438501     0.11600
H1220       H  0.45472035  0.41611331  0.64379016     0.11500
H1221       H  0.49544167  0.38643985  0.71158872     0.11700
H1222       H  0.49927224  0.35251766  0.68176215     0.10500
C1223       C  0.49233891  0.90646916  0.83114823    -0.03300
C1224       C  0.51242512  0.89737870  0.84180695    -0.09100
C1225       C  0.51280828  0.87584366  0.85377352    -0.16700
C1226       C  0.49319135  0.86309601  0.85506821     0.25400
C1227       C  0.47321157  0.87187955  0.84420055    -0.18400
C1228       C  0.47276382  0.89339046  0.83231167    -0.07300
C1229       C  0.49315115  0.84165884  0.86934370    -0.13800
C1230       C  0.49217938  0.82478065  0.88370880    -0.13500
C1231       C  0.48994196  0.80662557  0.90415440     0.25300
C1232       C  0.47083606  0.80544988  0.92174541    -0.18900
C1233       C  0.46970533  0.79002089  0.94459809    -0.07400
C1234       C  0.48757983  0.77544168  0.94993699    -0.03400
C1235       C  0.50629461  0.77589312  0.93140280    -0.08800
C1236       C  0.50751043  0.79154148  0.90862120    -0.16400
H1237       H  0.52779272  0.90695007  0.84111819     0.11800
H1238       H  0.52833324  0.86925306  0.86234993     0.11000
H1239       H  0.45789927  0.86221445  0.84527665     0.11000
H1240       H  0.45704943  0.89978014  0.82410713     0.11500
H1241       H  0.45720886  0.81710671  0.91859464     0.11600
H1242       H  0.45520922  0.78998066  0.45881755     0.11500
H1243       H  0.52040546  0.76503798  0.93555063     0.11700
H1244       H  0.52246319  0.79246671  0.89529432     0.10500
C1245       C  0.48213821  0.59668222  0.66602710    -0.03300
C1246       C  0.46738708  0.59401874  0.64226239    -0.09100
C1247       C  0.46852072  0.60843594  0.61816691    -0.16700
C1248       C  0.48441900  0.62560512  0.61752842     0.25400
C1249       C  0.49892012  0.62856116  0.64120598    -0.18400
C1250       C  0.49780101  0.61423874  0.66529613    -0.07300
C1251       C  0.48578579  0.64060641  0.59300502    -0.13800
C1252       C  0.48778223  0.65482012  0.57449711    -0.13500
C1253       C  0.49071317  0.67393253  0.55581252     0.25300
C1254       C  0.50411047  0.69162225  0.56545830    -0.18900
C1255       C  0.50521293  0.71139583  0.54934709    -0.07400
C1256       C  0.49302662  0.71367661  0.52328011    -0.03400
C1257       C  0.48020844  0.69558580  0.51309089    -0.08800
C1258       C  0.47905321  0.67575999  0.52934287    -0.16400
H1259       H  0.45521997  0.58059838  0.64206244     0.11800
H1260       H  0.45713347  0.60609738  0.59999565     0.11000
H1261       H  0.51121705  0.64188091  0.64096679     0.11000
H1262       H  0.50950420  0.61667684  0.68308096     0.11500
H1263       H  0.51312013  0.69040947  0.58596735     0.11600
H1264       H  0.51508876  0.72518715  0.55765944     0.11500
H1265       H  0.47027220  0.69716103  0.49340326     0.11700
H1266       H  0.46849359  0.66221111  0.52182162     0.10500
C1267       C  0.49678717  0.72448227  0.95678510    -0.03300
C1268       C  0.51462157  0.70936103  0.95933980    -0.09100
C1269       C  0.51866500  0.69359591  0.93741036    -0.16700
C1270       C  0.50507958  0.69285577  0.91249178     0.25400
C1271       C  0.48743758  0.70805579  0.90958354    -0.18400
C1272       C  0.48328963  0.72375684  0.93162822    -0.07300
C1273       C  0.50892063  0.67604314  0.89045914    -0.12600
C1274       C  0.51220952  0.66108878  0.87326560    -0.13500
C1275       C  0.51594280  0.64205600  0.85455397     0.25300
C1276       C  0.50595315  0.64085119  0.82687918    -0.18900
C1277       C  0.50823245  0.62153521  0.80983394    -0.07400
C1278       C  0.52043388  0.60311027  0.82037663    -0.03400
C1279       C  0.53098458  0.60480442  0.84782627    -0.08800
C1280       C  0.52874733  0.62412333  0.86473733    -0.16400
H1281       H  0.52536173  0.70974977  0.97837798     0.11800
H1282       H  0.53233085  0.68189886  0.93996634     0.11000
H1283       H  0.47673459  0.70758630  0.89048625     0.11000
H1284       H  0.46929832  0.73506421  0.92933397     0.11500
H1285       H  0.49597759  0.65461697  0.81876819     0.11600
H1286       H  0.49984271  0.62076004  0.78886300     0.11500
H1287       H  0.54055613  0.59099126  0.85658410     0.11700
H1288       H  0.53657779  0.62485354  0.88609647     0.10500
C1289       C  0.08857607  0.00544052  0.65304882    -0.03300
C1290       C  0.09569721  0.02650983  0.64287697    -0.09100
C1291       C  0.11722656  0.02935366  0.63145587    -0.16700
C1292       C  0.13197226  0.01124293  0.63014991     0.25400
C1293       C  0.12495290  0.99017315  0.63984187    -0.18400
C1294       C  0.10342374  0.98726497  0.65118407    -0.07300
C1295       C  0.15405200  0.01410995  0.61806363    -0.13800
C1296       C  0.17191119  0.01622161  0.60607381    -0.13500
C1297       C  0.19167308  0.01833005  0.58824034     0.25300
C1298       C  0.20860048  0.00217730  0.58952849    -0.18900
C1299       C  0.22565082  0.00208021  0.56847250    -0.07400
C1300       C  0.22567210  0.01799380  0.54585633    -0.03400
C1301       C  0.20945572  0.03490281  0.54579395    -0.08800
C1302       C  0.19262251  0.03513524  0.56695464    -0.16400
H1303       H  0.08472178  0.04085177  0.64399517     0.11800
H1304       H  0.12239923  0.04570171  0.62375922     0.11000
H1305       H  0.13615198  0.97599266  0.63873124     0.11000
H1306       H  0.09855132  0.97084908  0.65892262     0.11500
H1307       H  0.20794982  0.98899121  0.60578085     0.11600
H1308       H  0.23778648  0.98867443  0.06856807     0.11500
H1309       H  0.20912790  0.04720387  0.52837981     0.11700
H1310       H  0.17961151  0.04766574  0.56566627     0.10500
C1311       C  0.28864231  0.00136419  0.97719063    -0.03300
C1312       C  0.29132568  0.98294313  0.95852827    -0.09100
C1313       C  0.31072256  0.98057197  0.94187773    -0.16700
C1314       C  0.32763087  0.99668786  0.94344241     0.25400
C1315       C  0.32547709  0.01471669  0.96285042    -0.18400
C1316       C  0.30605611  0.01701066  0.97978670    -0.07300
C1317       C  0.34602860  0.99551901  0.92314049    -0.13800
C1318       C  0.35975499  0.99415114  0.90386128    -0.13500
C1319       C  0.37465665  0.99261175  0.87914899     0.25300
C1320       C  0.39116408  0.97608242  0.87815243    -0.18900
C1321       C  0.40560694  0.97474788  0.85409125    -0.07400
C1322       C  0.40368701  0.98994138  0.83065736    -0.03400
C1323       C  0.38672653  0.00619981  0.83165065    -0.08800
C1324       C  0.37235384  0.00750791  0.85571551    -0.16400
H1325       H  0.27801138  0.97079707  0.95607246     0.11800
H1326       H  0.31213393  0.96662595  0.92688278     0.11000
H1327       H  0.33838371  0.02740118  0.96406465     0.11000
H1328       H  0.30412063  0.03156160  0.99362879     0.11500
H1329       H  0.39300059  0.96435374  0.89607288     0.11600
H1330       H  0.41851670  0.96209218  0.85410403     0.11500
H1331       H  0.38481148  0.01822252  0.81409772     0.11700
H1332       H  0.35954320  0.02027646  0.85614447     0.10500
C1333       C  0.27736769  0.01269808  0.54229827    -0.03300
C1334       C  0.27674367  0.03137734  0.56090234    -0.09100
C1335       C  0.29243881  0.03375956  0.58335656    -0.16700
C1336       C  0.30892201  0.01750191  0.58752278     0.25400
C1337       C  0.30941660  0.99864125  0.56937579    -0.18400
C1338       C  0.29369670  0.99623469  0.54692802    -0.07300
C1339       C  0.32600356  0.02073011  0.60935654    -0.13800
C1340       C  0.34125968  0.02375613  0.62617199    -0.13500
C1341       C  0.36078750  0.02727248  0.64405210     0.25300
C1342       C  0.38063347  0.03455399  0.63093298    -0.18900
C1343       C  0.40012884  0.03662121  0.64750927    -0.07400
C1344       C  0.40013345  0.03130101  0.67754278    -0.03400
C1345       C  0.37992944  0.02462337  0.69078137    -0.08800
C1346       C  0.36037485  0.02264372  0.67411378    -0.16400
H1347       H  0.26444590  0.04435028  0.55755849     0.11800
H1348       H  0.29196190  0.04849268  0.59713346     0.11000
H1349       H  0.32210764  0.98596953  0.57233178     0.11000
H1350       H  0.29431417  0.98157841  0.03305415     0.11500
H1351       H  0.38116736  0.03817701  0.60769439     0.11600
H1352       H  0.41536173  0.04170946  0.63654228     0.11500
H1353       H  0.37934949  0.02040216  0.71382750     0.11700
H1354       H  0.34508973  0.01703129  0.68452809     0.10500
C1355       C  0.77053718  0.99957139  0.94929264    -0.03300
C1356       C  0.77206492  0.98152666  0.92976173    -0.09100
C1357       C  0.78965523  0.98059442  0.90947038    -0.16700
C1358       C  0.80565401  0.99775807  0.90854730     0.25400
C1359       C  0.80334701  0.01633218  0.92682280    -0.18400
C1360       C  0.78595860  0.01721047  0.94709177    -0.07300
C1361       C  0.82551137  0.99585753  0.89089906    -0.13800
C1362       C  0.84336354  0.99604502  0.87860702    -0.13500
C1363       C  0.86519496  0.99831850  0.86560547     0.25300
C1364       C  0.87271902  0.01944642  0.85685456    -0.18900
C1365       C  0.89385119  0.02196746  0.84424694    -0.07400
C1366       C  0.90783508  0.00334188  0.84016596    -0.03400
C1367       C  0.90030426  0.98218823  0.84955480    -0.08800
C1368       C  0.87911851  0.97971835  0.86221940    -0.16400
H1369       H  0.76058082  0.96757516  0.93146184     0.11800
H1370       H  0.79132133  0.96609988  0.89546108     0.11000
H1371       H  0.81558839  0.02970047  0.92632589     0.11000
H1372       H  0.78513812  0.03121354  0.46206678     0.11500
H1373       H  0.86217494  0.03399468  0.85962036     0.11600
H1374       H  0.89908408  0.03848218  0.83731531     0.11500
H1375       H  0.91064123  0.96750738  0.84677506     0.11700
H1376       H  0.87355664  0.96330759  0.86918037     0.10500
C1377       C  0.59263343  0.01488015  0.66380662    -0.03300
C1378       C  0.58913321  0.02797497  0.63857701    -0.09100
C1379       C  0.60342345  0.02608539  0.61443555    -0.16700
C1380       C  0.62140023  0.01117711  0.61526879     0.25400
C1381       C  0.62548347  0.99873355  0.64065305    -0.18400
C1382       C  0.61122127  0.00053845  0.66474377    -0.07300
C1383       C  0.63549545  0.00808197  0.59005584    -0.13800
C1384       C  0.64855014  0.00423085  0.57059489    -0.13500
C1385       C  0.66631745  0.99887472  0.55056618     0.25300
C1386       C  0.68183105  0.98249075  0.55848030    -0.18900
C1387       C  0.70121783  0.97957627  0.54196694    -0.07400
C1388       C  0.70522352  0.99287982  0.51718974    -0.03400
C1389       C  0.68892376  0.00826137  0.50813450    -0.08800
C1390       C  0.66954389  0.01132194  0.52488472    -0.16400
H1391       H  0.57494374  0.03912143  0.63709634     0.11800
H1392       H  0.60017692  0.03588374  0.59494391     0.11000
H1393       H  0.63944339  0.98724838  0.64160054     0.11000
H1394       H  0.61443370  0.99025584  0.68380049     0.11500
H1395       H  0.67952910  0.97278825  0.57830457     0.11600
H1396       H  0.71369386  0.96777089  0.54940646     0.11500
H1397       H  0.69191786  0.01897703  0.48940939     0.11700
H1398       H  0.65768611  0.02412297  0.51863882     0.10500
C1399       C  0.71900023  0.98925510  0.95171653    -0.03300
C1400       C  0.71905958  0.00312922  0.92685928    -0.09100
C1401       C  0.70378898  0.99946679  0.90410207    -0.16700
C1402       C  0.68832306  0.98188953  0.90593732     0.25400
C1403       C  0.68851876  0.96775077  0.93037691    -0.18400
C1404       C  0.70376751  0.97137461  0.95305897    -0.07300
C1405       C  0.67142563  0.97898306  0.88370872    -0.13800
C1406       C  0.65605753  0.97662515  0.86683533    -0.13500
C1407       C  0.63637006  0.97414485  0.84886275     0.25300
C1408       C  0.61731562  0.96380016  0.86045089    -0.18900
C1409       C  0.59758653  0.96275569  0.84410877    -0.07400
C1410       C  0.59657071  0.97208172  0.81582697    -0.03400
C1411       C  0.61601325  0.98189153  0.80400527    -0.08800
C1412       C  0.63574933  0.98294608  0.82045096    -0.16400
H1413       H  0.73047684  0.01713779  0.92547141     0.11800
H1414       H  0.70373991  0.01060908  0.88538952     0.11000
H1415       H  0.67663930  0.95412698  0.93212264     0.11000
H1416       H  0.70357573  0.96033585  0.97185428     0.11500
H1417       H  0.61755608  0.95695048  0.88241716     0.11600
H1418       H  0.58298277  0.95509344  0.85392860     0.11500
H1419       H  0.61582349  0.98929780  0.78236641     0.11700
H1420       H  0.65036232  0.99104039  0.81123906     0.10500
C1421       C  0.98306572  0.09904213  0.82970160    -0.03300
C1422       C  0.99665917  0.11824184  0.82838611    -0.09100
C1423       C  0.99682959  0.13358268  0.85147016    -0.16700
C1424       C  0.98347372  0.12998489  0.87621626     0.25400
C1425       C  0.96958438  0.11117027  0.87752593    -0.18400
C1426       C  0.96935192  0.09580912  0.85444319    -0.07300
C1427       C  0.98422686  0.14560591  0.90020273    -0.13800
C1428       C  0.98555926  0.15965470  0.91906610    -0.13500
C1429       C  0.98777195  0.17814588  0.93905144     0.25300
C1430       C  0.97423302  0.19694867  0.93532806    -0.18900
C1431       C  0.97815732  0.21619338  0.95177439    -0.07400
C1432       C  0.99564255  0.21691483  0.97227083    -0.03400
C1433       C  0.00860807  0.19768327  0.97689164    -0.08800
C1434       C  0.00467365  0.17836229  0.96031284    -0.16400
H1435       H  0.00741900  0.12126274  0.80972300     0.11800
H1436       H  0.00757992  0.14814363  0.85015084     0.11000
H1437       H  0.95911343  0.10824210  0.89650938     0.11000
H1438       H  0.95872835  0.08119869  0.85623702     0.11500
H1439       H  0.96118066  0.19704165  0.91890209     0.11600
H1440       H  0.96797486  0.23083596  0.94780411     0.11500
H1441       H  0.02244317  0.19796431  0.99214233     0.11700
H1442       H  0.01537046  0.16394707  0.96323427     0.10500
C1443       C  0.02030195  0.10411061  0.67438066    -0.03300
C1444       C  0.01070874  0.12355616  0.68628018    -0.09100
C1445       C  0.00935243  0.14317638  0.66958474    -0.16700
C1446       C  0.01763136  0.14360363  0.64089450     0.25400
C1447       C  0.02770429  0.12452808  0.62921293    -0.18400
C1448       C  0.02904763  0.10495188  0.64577101    -0.07300
C1449       C  0.01509190  0.16315175  0.62275673    -0.13800
C1450       C  0.01303150  0.17837257  0.60561967    -0.13500
C1451       C  0.01088386  0.19535165  0.58340389     0.25300
C1452       C  0.99214291  0.19559757  0.56503405    -0.18900
C1453       C  0.99060382  0.21130730  0.54240701    -0.07400
C1454       C  0.00788080  0.22683415  0.53777767    -0.03400
C1455       C  0.02649669  0.22666541  0.55652747    -0.08800
C1456       C  0.02798775  0.21102012  0.57919761    -0.16400
H1457       H  0.00377830  0.12346130  0.70818328     0.11800
H1458       H  0.00149630  0.15785298  0.67884821     0.11000
H1459       H  0.03416976  0.12465168  0.60704763     0.11000
H1460       H  0.03658180  0.09034406  0.63590306     0.11500
H1461       H  0.97882526  0.18352018  0.56803308     0.11600
H1462       H  0.97598632  0.21134632  0.52846703     0.11500
H1463       H  0.04004064  0.23842348  0.55323996     0.11700
H1464       H  0.04261988  0.21093233  0.59315320     0.10500
C1465       C  0.01381555  0.27818249  0.54279855    -0.03300
C1466       C  0.99807738  0.27618980  0.56549159    -0.09100
C1467       C  0.99742866  0.29207603  0.58794803    -0.16700
C1468       C  0.01259607  0.30994293  0.58796398     0.25400
C1469       C  0.02911783  0.31122526  0.56633188    -0.18400
C1470       C  0.02967674  0.29548336  0.54381113    -0.07300
C1471       C  0.00982972  0.32828236  0.60798384    -0.13800
C1472       C  0.00736027  0.34512824  0.62206898    -0.13500
C1473       C  0.00469254  0.36640320  0.63631594     0.25300
C1474       C  0.02294892  0.38092940  0.63861303    -0.18900
C1475       C  0.02030600  0.40203475  0.65120000    -0.07400
C1476       C  0.99928758  0.40897275  0.66158792    -0.03400
C1477       C  0.98101116  0.39421988  0.65921991    -0.08800
C1478       C  0.98371751  0.37308194  0.64664041    -0.16400
H1479       H  0.98538153  0.26328289  0.56480619     0.11800
H1480       H  0.98445206  0.29103220  0.60444423     0.11000
H1481       H  0.04087675  0.32501876  0.56605473     0.11000
H1482       H  0.04184324  0.29738724  0.52641053     0.11500
H1483       H  0.03922139  0.37599702  0.63048918     0.11600
H1484       H  0.03473321  0.41292301  0.65272769     0.11500
H1485       H  0.96463567  0.39897476  0.66712367     0.11700
H1486       H  0.96943216  0.36202008  0.64479579     0.10500
C1487       C  0.99708890  0.79224535  0.51928709    -0.03300
C1488       C  0.98234878  0.81018260  0.51494040    -0.09100
C1489       C  0.98512438  0.83003522  0.53076984    -0.16700
C1490       C  0.00271531  0.83208108  0.55085014     0.25400
C1491       C  0.01789958  0.81454391  0.55433487    -0.18400
C1492       C  0.01504638  0.79471126  0.53875773    -0.07300
C1493       C  0.00423744  0.85113798  0.56992137    -0.13800
C1494       C  0.00567585  0.86543750  0.58839629    -0.13500
C1495       C  0.00727780  0.88088872  0.61242821     0.25300
C1496       C  0.01937737  0.90079447  0.60947035    -0.18900
C1497       C  0.02089528  0.91567105  0.63299585    -0.07400
C1498       C  0.01023992  0.91084121  0.65978000    -0.03400
C1499       C  0.99831914  0.89065950  0.66259113    -0.08800
C1500       C  0.99691357  0.87578474  0.63909320    -0.16400
H1501       H  0.96817016  0.80845765  0.50040157     0.11800
H1502       H  0.97315233  0.84344246  0.52810580     0.11000
H1503       H  0.03149166  0.81589582  0.56989073     0.11000
H1504       H  0.02653830  0.78102836  0.54245647     0.11500
H1505       H  0.02752358  0.90487722  0.58895639     0.11600
H1506       H  0.03003508  0.93114704  0.63001063     0.11500
H1507       H  0.98990115  0.88644576  0.68285644     0.11700
H1508       H  0.98761085  0.86034971  0.64167001     0.10500
C1509       C  0.98722674  0.78168348  0.95414592    -0.03300
C1510       C  0.96846402  0.78241603  0.93573085    -0.09100
C1511       C  0.96699664  0.79853727  0.91360551    -0.16700
C1512       C  0.98432613  0.81401010  0.90955866     0.25400
C1513       C  0.00320325  0.81317749  0.92764496    -0.18400
C1514       C  0.00465684  0.79708709  0.94979863    -0.07300
C1515       C  0.98242866  0.83119673  0.88755078    -0.13800
C1516       C  0.98062387  0.84634619  0.87023575    -0.13500
C1517       C  0.97823168  0.86559977  0.85149300     0.25300
C1518       C  0.98836123  0.86628340  0.82383082    -0.18900
C1519       C  0.98696251  0.88564094  0.80659256    -0.07400
C1520       C  0.97552344  0.90458463  0.81696655    -0.03400
C1521       C  0.96496172  0.90345990  0.84448683    -0.08800
C1522       C  0.96630740  0.88413657  0.86155203    -0.16400
H1523       H  0.95480282  0.77078150  0.93892414     0.11800
H1524       H  0.95224967  0.79909278  0.89987907     0.11000
H1525       H  0.01669410  0.82508014  0.92479077     0.11000
H1526       H  0.01932080  0.79666132  0.96365537     0.11500
H1527       H  0.99766483  0.85202921  0.81582319     0.11600
H1528       H  0.99535248  0.88600022  0.78558620     0.11500
H1529       H  0.95594393  0.91767835  0.85311922     0.11700
H1530       H  0.95837349  0.88381365  0.88287990     0.10500
C1531       C  0.99754338  0.59782868  0.83434699    -0.03300
C1532       C  0.01599768  0.61221320  0.83788890    -0.09100
C1533       C  0.01311993  0.63375931  0.84915484    -0.16700
C1534       C  0.99178851  0.64125767  0.85693719     0.25400
C1535       C  0.97333678  0.62712059  0.85340983    -0.18400
C1536       C  0.97615983  0.60558349  0.84217348    -0.07300
C1537       C  0.98894251  0.66290006  0.87018351    -0.13800
C1538       C  0.98639127  0.67994667  0.88384172    -0.13500
C1539       C  0.98342423  0.69825669  0.90388114     0.25300
C1540       C  0.96763482  0.69625431  0.92632731    -0.18900
C1541       C  0.96699898  0.71197885  0.94884121    -0.07400
C1542       C  0.98206775  0.72999429  0.94911495    -0.03400
C1543       C  0.99705057  0.73267341  0.92566137    -0.08800
C1544       C  0.99776383  0.71680108  0.90315459    -0.16400
H1545       H  0.03266224  0.60683985  0.83195943     0.11800
H1546       H  0.02755377  0.64449494  0.85201604     0.11000
H1547       H  0.95677063  0.63267778  0.85958168     0.11000
H1548       H  0.96157478  0.59502735  0.83960256     0.11500
H1549       H  0.95653734  0.68193578  0.92720780     0.11600
H1550       H  0.95540717  0.70953128  0.96679174     0.11500
H1551       H  0.00916885  0.74613179  0.92572727     0.11700
H1552       H  0.01019248  0.71841056  0.88602365     0.10500
loop_ 
_geom_bond_atom_site_label_1 
_geom_bond_atom_site_label_2 
_geom_bond_distance 
_geom_bond_site_symmetry_2 
_ccdc_geom_bond_type 
N1            C2   1.357       .  A
N1          C781   1.357       .  A
N1          C733   1.440       .  S
C2          C766   1.478       .  S
C2          C779   1.383       .  A
C3            C4   1.373       .  A
C3          C778   1.383   1_554  A
C3            H6   1.082       .  S
C4            C5   1.382       .  A
C4            H7   1.082       .  S
C5          N777   1.357   1_554  A
C5          C711   1.476       .  S
N8            C9   1.358       .  A
N8          C788   1.360   1_554  A
N8          C678   1.442       .  S
C9          C689   1.478       .  S
C9          C786   1.382   1_554  A
C10          C11   1.372       .  A
C10         C785   1.382       .  A
C10          H13   1.082       .  S
C11          C12   1.383       .  A
C11          H14   1.082       .  S
C12         N784   1.360       .  A
C12         C656   1.481   1_455  S
N15          C16   1.359       .  A
N15         C795   1.359       .  A
N15         C623   1.443       .  S
C16         C579   1.477       .  S
C16         C793   1.383   1_565  A
C17          C18   1.370   1_545  A
C17         C792   1.383   1_544  A
C17          H20   1.082       .  S
C18          C19   1.381       .  A
C18          H21   1.082   1_565  S
C19         N791   1.359   1_554  A
C19         C612   1.476       .  S
N22          C23   1.358       .  A
N22         C802   1.359   1_554  A
N22         C557   1.442       .  S
C23         C524   1.476       .  S
C23         C800   1.382   1_554  A
C24          C25   1.372       .  A
C24         C799   1.382       .  A
C24          H27   1.082       .  S
C25          C26   1.382       .  A
C25          H28   1.082       .  S
C26         N798   1.359       .  A
C26         C535   1.477       .  S
N29          C30   1.357       .  A
N29         C809   1.359       .  A
N29         C491   1.443       .  S
C30         C458   1.474       .  S
C30         C807   1.382       .  A
C31          C32   1.372       .  A
C31         C806   1.382   1_554  A
C31          H34   1.082       .  S
C32          C33   1.383       .  A
C32          H35   1.082       .  S
C33         N805   1.359   1_554  A
C33         C480   1.477       .  S
N36          C37   1.356       .  A
N36         C816   1.358   1_554  A
N36         C425   1.438       .  S
C37         C392   1.478       .  S
C37         C814   1.383   1_554  A
C38          C39   1.373       .  A
C38         C813   1.383       .  A
C38          H41   1.082       .  S
C39          C40   1.383       .  A
C39          H42   1.082       .  S
C40         N812   1.358       .  A
C40         C414   1.481       .  S
N43          C44   1.357       .  A
N43         C823   1.359   1_554  A
N43         C348   1.442       .  S
C44         C359   1.475       .  S
C44         C821   1.382   1_554  A
C45          C46   1.371       .  A
C45         C820   1.382       .  A
C45          H48   1.082       .  S
C46          C47   1.383       .  A
C46          H49   1.082       .  S
C47         N819   1.359       .  A
C47         C315   1.478       .  S
N50          C51   1.360       .  A
N50         C830   1.361       .  A
N50         C271   1.444       .  S
C51         C293   1.480       .  S
C51         C828   1.383       .  A
C52          C53   1.371       .  A
C52         C827   1.383   1_554  A
C52          H55   1.082       .  S
C53          C54   1.382       .  A
C53          H56   1.082       .  S
C54         N826   1.361   1_554  A
C54         C249   1.480       .  S
O57         Mg59   2.128       .  S
O57         Mg65   2.141       .  S
O57          C92   1.238       .  S
C58          H97   1.081       .  S
C58          O71   1.238       .  S
C58          O95   1.272       .  A
Mg59         O88   2.140       .  S
Mg59        O103   2.312       .  S
Mg59         O99   2.256       .  S
Mg59         O70   2.300       .  S
O60        Mg102   2.136       .  S
O60         Mg85   2.130       .  S
O60          C81   1.238       .  S
O61          C92   1.272       .  A
O61         Mg85   2.302       .  S
C62         C403   1.483       .  S
C62          O64   1.273       .  A
C62          O76   1.276       .  A
O63          C91   1.272       .  A
O63         Mg65   2.300       .  S
O64         Mg96   2.262       .  S
Mg65         O71   2.135       .  S
Mg65         O79   2.256       .  S
Mg65         O67   2.298       .  S
C66         C304   1.485       .  S
C66         O104   1.273       .  A
C66          O72   1.276       .  A
O67          C74   1.274       .  A
H68          C81   1.081       .  S
C69          H94   1.081       .  S
C69          O83   1.239       .  S
C69          O84   1.272       .  A
O70          C93   1.271       .  A
O71         Mg85   2.142       .  S
O72        Mg102   2.311       .  S
C73         C502   1.484       .  S
C73          O86   1.273       .  A
C73          O78   1.277       .  A
C74         C469   1.480       .  S
C74         O101   1.272       .  A
Mg75         O82   2.134       .  S
Mg75         O83   2.141       .  S
Mg75         O76   2.309       .  S
Mg75         O77   2.300       .  S
Mg75        O104   2.264       .  S
O77          C81   1.272       .  A
O78         Mg85   2.320       .  S
O79          C98   1.272       .  A
O80         C100   1.278       .  A
O80         Mg96   2.322       .  S
O82         Mg96   2.137       .  S
O82          C93   1.237       .  S
O83        Mg102   2.131       .  S
O84         Mg96   2.302       .  S
Mg85        O101   2.258       .  S
O86        Mg102   2.259       .  S
H87          C92   1.081       .  S
O88         Mg96   2.136       .  S
O88          C91   1.238       .  S
H89          C91   1.081       .  S
H90          C93   1.081       .  S
O95        Mg102   2.303       .  S
C98         C370   1.483       .  S
C98         O103   1.276       .  A
O99         C100   1.273       .  A
C100        C436   1.483       .  S
O105       Mg107   2.132       .  S
O105       Mg113   2.140       .  S
O105        C140   1.238   1_545  S
C106        H145   1.081       .  S
C106        O119   1.237       .  S
C106        O143   1.271       .  A
Mg107       O136   2.140       .  S
Mg107       O151   2.311       .  S
Mg107       O147   2.259       .  S
Mg107       O118   2.299   1_545  S
O108       Mg150   2.141       .  S
O108       Mg133   2.132       .  S
O108        C129   1.239       .  S
O109        C140   1.272       .  A
O109       Mg133   2.303       .  S
C110        C546   1.484       .  S
C110        O112   1.273   1_565  A
C110        O124   1.276       .  A
O111        C139   1.272       .  A
O111       Mg113   2.299       .  S
O112       Mg144   2.261       .  S
Mg113       O119   2.134       .  S
Mg113       O127   2.259       .  S
Mg113       O115   2.305       .  S
C114        C447   1.482       .  S
C114        O152   1.272       .  A
C114        O120   1.277       .  A
O115        C122   1.275       .  A
H116        C129   1.081       .  S
C117        H142   1.082       .  S
C117        O131   1.239   1_545  S
C117        O132   1.273       .  A
O118        C141   1.271       .  A
O119       Mg133   2.139   1_545  S
O120       Mg150   2.314       .  S
C121        C634   1.487       .  S
C121        O134   1.274       .  A
C121        O126   1.277       .  A
C122        C601   1.482       .  S
C122        O149   1.273   1_545  A
Mg123       O130   2.130       .  S
Mg123       O131   2.141       .  S
Mg123       O124   2.311       .  S
Mg123       O125   2.301       .  S
Mg123       O152   2.252       .  S
O125        C129   1.272       .  A
O126       Mg133   2.319       .  S
O127        C146   1.272       .  A
O128        C148   1.277       .  A
O128       Mg144   2.318       .  S
O130       Mg144   2.139   1_565  S
O130        C141   1.238       .  S
O131       Mg150   2.137       .  S
O132       Mg144   2.304       .  S
Mg133       O149   2.262       .  S
O134       Mg150   2.269       .  S
H135        C140   1.082       .  S
O136       Mg144   2.128       .  S
O136        C139   1.238       .  S
H137        C139   1.081       .  S
H138        C141   1.081       .  S
O143       Mg150   2.300   1_545  S
C146        C381   1.483       .  S
C146        O151   1.276       .  A
O147        C148   1.273       .  A
C148        C568   1.484       .  S
O153       Mg155   2.131   1_565  S
O153       Mg161   2.139       .  S
O153        C188   1.238   1_455  S
C154        H193   1.081       .  S
C154        O167   1.237       .  S
C154        O191   1.271       .  A
Mg155       O184   2.142       .  S
Mg155       O199   2.308       .  S
Mg155       O195   2.250       .  S
Mg155       O166   2.300   1_455  S
O156       Mg198   2.140       .  S
O156       Mg181   2.136       .  S
O156        C177   1.238       .  S
O157        C188   1.272       .  A
O157       Mg181   2.304       .  S
C158        C645   1.485       .  S
C158        O160   1.275       .  A
C158        O172   1.276       .  A
O159        C187   1.273       .  A
O159       Mg161   2.303   1_545  S
O160       Mg192   2.274   1_655  S
Mg161       O167   2.130       .  S
Mg161       O175   2.265       .  S
Mg161       O163   2.307       .  S
C162        C590   1.484       .  S
C162        O200   1.273       .  A
C162        O168   1.275   1_545  A
O163        C170   1.276       .  A
H164        C177   1.081       .  S
C165        H190   1.081       .  S
C165        O179   1.237   1_455  S
C165        O180   1.271       .  A
O166        C189   1.271       .  A
O167       Mg181   2.139   1_455  S
O168       Mg198   2.307       .  S
C169        C744   1.484       .  S
C169        O182   1.272       .  A
C169        O174   1.278       .  A
C170        C722   1.482       .  S
C170        O197   1.274   1_455  A
Mg171       O178   2.134       .  S
Mg171       O179   2.142       .  S
Mg171       O172   2.306       .  S
Mg171       O173   2.300       .  S
Mg171       O200   2.264       .  S
O173        C177   1.272   1_545  A
O174       Mg181   2.330       .  S
O175        C194   1.272   1_565  A
O176        C196   1.278       .  A
O176       Mg192   2.325       .  S
O178       Mg192   2.145   1_655  S
O178        C189   1.238       .  S
O179       Mg198   2.134   1_545  S
O180       Mg192   2.300       .  S
Mg181       O197   2.268       .  S
O182       Mg198   2.250       .  S
H183        C188   1.081       .  S
O184       Mg192   2.141       .  S
O184        C187   1.239       .  S
H185        C187   1.081       .  S
H186        C189   1.081       .  S
O191       Mg198   2.298   1_455  S
C194        C513   1.484       .  S
C194        O199   1.275       .  A
O195        C196   1.272       .  A
C196        C667   1.484       .  S
O201       Mg203   2.141   1_655  S
O201       Mg209   2.146       .  S
O201        C236   1.239       .  S
C202        H241   1.081       .  S
C202        O215   1.238       .  S
C202        O239   1.272       .  A
Mg203       O232   2.139       .  S
Mg203       O247   2.303       .  S
Mg203       O243   2.272       .  S
Mg203       O214   2.297       .  S
O204       Mg246   2.136       .  S
O204       Mg229   2.130       .  S
O204        C225   1.239       .  S
O205        C236   1.273       .  A
O205       Mg229   2.306       .  S
C206        C326   1.480       .  S
C206        O208   1.273       .  A
C206        O220   1.276       .  A
O207        C235   1.272   1_655  A
O207       Mg209   2.302       .  S
O208       Mg240   2.258       .  S
Mg209       O215   2.136       .  S
Mg209       O223   2.266       .  S
Mg209       O211   2.320       .  S
C210        C755   1.484   1_455  S
C210        O248   1.273       .  A
C210        O216   1.275   1_455  A
O211        C218   1.277       .  A
H212        C225   1.081       .  S
C213        H238   1.081       .  S
C213        O227   1.238       .  S
C213        O228   1.272       .  A
O214        C237   1.271       .  A
O215       Mg229   2.137       .  S
O216       Mg246   2.303       .  S
C217        C282   1.486       .  S
C217        O230   1.272       .  A
C217        O222   1.278       .  A
C218        C260   1.485       .  S
C218        O245   1.273       .  A
Mg219       O226   2.134       .  S
Mg219       O227   2.139       .  S
Mg219       O220   2.303       .  S
Mg219       O221   2.300       .  S
Mg219       O248   2.269       .  S
O221        C225   1.273   1_455  A
O222       Mg229   2.329       .  S
O223        C242   1.273       .  A
O224        C244   1.278       .  A
O224       Mg240   2.329       .  S
O226       Mg240   2.139       .  S
O226        C237   1.237       .  S
O227       Mg246   2.127   1_455  S
O228       Mg240   2.302       .  S
Mg229       O245   2.258       .  S
O230       Mg246   2.255       .  S
H231        C236   1.081       .  S
O232       Mg240   2.132       .  S
O232        C235   1.239       .  S
H233        C235   1.081       .  S
H234        C237   1.081       .  S
O239       Mg246   2.301       .  S
C242        C700   1.483       .  S
C242        O247   1.276   1_655  A
O243        C244   1.274       .  A
C244        C337   1.489       .  S
C249        C250   1.405       .  A
C249        C254   1.404       .  A
C250        C251   1.403       .  A
C250        H263   1.083       .  S
C251        C252   1.403       .  A
C251        H264   1.083       .  S
C252        C253   1.398       .  A
C252        C255   1.442       .  S
C253        C254   1.395       .  A
C253        H265   1.083       .  S
C254        H266   1.083       .  S
C255        C256   1.208       .  T
C256        C257   1.442       .  S
C257        C258   1.399       .  A
C257        C262   1.401       .  A
C258        C259   1.397       .  A
C258        H267   1.084       .  S
C259        C260   1.408       .  A
C259        H268   1.083       .  S
C260        C261   1.408       .  A
C261        C262   1.401       .  A
C261        H269   1.083       .  S
C262        H270   1.083       .  S
C271        C272   1.406       .  A
C271        C276   1.406       .  A
C272        C273   1.400       .  A
C272        H285   1.082       .  S
C273        C274   1.401       .  A
C273        H286   1.083       .  S
C274        C275   1.401       .  A
C274        C277   1.444       .  S
C275        C276   1.399       .  A
C275        H287   1.083       .  S
C276        H288   1.082       .  S
C277        C278   1.208       .  T
C278        C279   1.444       .  S
C279        C280   1.401       .  A
C279        C284   1.399       .  A
C280        C281   1.402       .  A
C280        H289   1.083       .  S
C281        C282   1.408       .  A
C281        H290   1.083       .  S
C282        C283   1.409       .  A
C283        C284   1.398       .  A
C283        H291   1.083       .  S
C284        H292   1.084       .  S
C293        C294   1.406       .  A
C293        C298   1.405       .  A
C294        C295   1.403       .  A
C294       H1083   1.083       .  S
C295        C296   1.403       .  A
C295        H308   1.083       .  S
C296        C297   1.398       .  A
C296        C299   1.441       .  S
C297        C298   1.395       .  A
C297        H309   1.084       .  S
C298        H310   1.083       .  S
C299        C300   1.207       .  T
C300        C301   1.442       .  S
C301        C302   1.400       .  A
C301        C306   1.399       .  A
C302        C303   1.400       .  A
C302        H311   1.084       .  S
C303        C304   1.408       .  A
C303        H312   1.083       .  S
C304        C305   1.408       .  A
C305        C306   1.399       .  A
C305        H313   1.083       .  S
C306        H314   1.083       .  S
H307       C1070   1.083       .  S
C315        C316   1.405       .  A
C315        C320   1.405       .  A
C316        C317   1.393       .  A
C316        H329   1.083       .  S
C317        C318   1.397       .  A
C317        H330   1.084       .  S
C318        C319   1.402       .  A
C318        C321   1.437       .  S
C319        C320   1.401       .  A
C319        H331   1.083       .  S
C320        H332   1.082       .  S
C321        C322   1.204       .  T
C322        C323   1.437       .  S
C323        C324   1.399       .  A
C323        C328   1.399       .  A
C324        C325   1.399       .  A
C324        H333   1.083       .  S
C325        C326   1.409       .  A
C325        H334   1.083       .  S
C326        C327   1.407       .  A
C327        C328   1.396       .  A
C327        H335   1.083       .  S
C328        H336   1.084       .  S
C337        C338   1.410       .  A
C337        C342   1.408       .  A
C338        C339   1.404       .  A
C338        H351   1.083       .  S
C339        C340   1.402       .  A
C339        H352   1.083       .  S
C340        C341   1.399       .  A
C340        C343   1.447       .  S
C341        C342   1.399       .  A
C341        H353   1.084       .  S
C342        H354   1.083       .  S
C343        C344   1.210       .  T
C344        C345   1.447       .  S
C345        C346   1.401       .  A
C345        C350   1.403       .  A
C346        C347   1.400       .  A
C346        H355   1.083       .  S
C347        C348   1.405       .  A
C347       H1132   1.083       .  S
C348        C349   1.404       .  A
C349        C350   1.402       .  A
C349        H357   1.082       .  S
C350        H358   1.083       .  S
H356       C1123   1.083       .  S
C359        C360   1.403       .  A
C359        C364   1.405       .  A
C360        C361   1.394       .  A
C360       H1149   1.083       .  S
C361        C362   1.398       .  A
C361        H374   1.084       .  S
C362        C363   1.402       .  A
C362        C365   1.438       .  S
C363        C364   1.401       .  A
C363        H375   1.083       .  S
C364        H376   1.083       .  S
C365        C366   1.205       .  T
C366        C367   1.438       .  S
C367        C368   1.399       .  A
C367        C372   1.400       .  A
C368        C369   1.398       .  A
C368        H377   1.084       .  S
C369        C370   1.409       .  A
C369        H378   1.083       .  S
C370        C371   1.407       .  A
C371        C372   1.398       .  A
C371        H379   1.083       .  S
C372        H380   1.084       .  S
H373       C1136   1.083       .  S
C381        C382   1.408       .  A
C381        C386   1.408       .  A
C382        C383   1.397       .  A
C382        H395   1.083       .  S
C383        C384   1.399       .  A
C383        H396   1.084       .  S
C384        C385   1.400       .  A
C384        C387   1.440       .  S
C385        C386   1.400       .  A
C385        H397   1.083       .  S
C386        H398   1.083       .  S
C387        C388   1.206       .  T
C388        C389   1.439       .  S
C389        C390   1.403       .  A
C389        C394   1.398       .  A
C390        C391   1.403       .  A
C390        H399   1.083       .  S
C391        C392   1.405       .  A
C391        H400   1.083       .  S
C392        C393   1.404       .  A
C393        C394   1.393       .  A
C393        H401   1.083       .  S
C394        H402   1.084       .  S
C403        C404   1.409       .  A
C403        C408   1.407       .  A
C404        C405   1.401       .  A
C404        H417   1.083       .  S
C405        C406   1.400       .  A
C405        H418   1.083       .  S
C406        C407   1.398       .  A
C406        C409   1.440       .  S
C407        C408   1.396       .  A
C407        H419   1.084       .  S
C408        H420   1.083       .  S
C409        C410   1.206       .  T
C410        C411   1.440       .  S
C411        C412   1.399       .  A
C411        C416   1.401       .  A
C412        C413   1.396       .  A
C412        H421   1.084       .  S
C413        C414   1.405       .  A
C413        H422   1.083       .  S
C414        C415   1.407       .  A
C415        C416   1.401       .  A
C415        H423   1.082       .  S
C416        H424   1.083       .  S
C425        C426   1.404       .  A
C425        C430   1.403       .  A
C426        C427   1.400       .  A
C426        H439   1.083       .  S
C427        C428   1.402       .  A
C427        H440   1.083       .  S
C428        C429   1.400       .  A
C428        C431   1.441       .  S
C429        C430   1.397       .  A
C429        H441   1.084       .  S
C430        H442   1.083       .  S
C431        C432   1.207       .  T
C432        C433   1.441       .  S
C433        C434   1.399       .  A
C433        C438   1.401       .  A
C434        C435   1.397       .  A
C434        H443   1.084       .  S
C435        C436   1.408       .  A
C435        H444   1.083       .  S
C436        C437   1.408       .  A
C437        C438   1.401       .  A
C437        H445   1.083       .  S
C438        H446   1.083       .  S
C447        C448   1.407       .  A
C447        C452   1.408       .  A
C448        C449   1.399       .  A
C448        H461   1.083       .  S
C449        C450   1.400       .  A
C449        H462   1.083       .  S
C450        C451   1.398       .  A
C450        C453   1.438       .  S
C451        C452   1.397       .  A
C451        H463   1.084       .  S
C452        H464   1.083       .  S
C453        C454   1.205       .  T
C454        C455   1.438       .  S
C455        C456   1.399       .  A
C455        C460   1.402       .  A
C456        C457   1.394       .  A
C456        H465   1.084       .  S
C457        C458   1.403       .  A
C457       H1242   1.083       .  S
C458        C459   1.404       .  A
C459        C460   1.401       .  A
C459        H467   1.083       .  S
C460        H468   1.083       .  S
H466       C1233   1.083       .  S
C469        C470   1.409       .  A
C469        C474   1.407       .  A
C470        C471   1.399       .  A
C470        H483   1.083       .  S
C471        C472   1.399       .  A
C471        H484   1.083       .  S
C472        C473   1.398       .  A
C472        C475   1.437       .  S
C473        C474   1.395       .  A
C473        H485   1.084       .  S
C474        H486   1.083       .  S
C475        C476   1.204       .  T
C476        C477   1.437       .  S
C477        C478   1.398       .  A
C477        C482   1.401       .  A
C478        C479   1.394       .  A
C478        H487   1.084       .  S
C479        C480   1.403       .  A
C479        H488   1.083       .  S
C480        C481   1.405       .  A
C481        C482   1.400       .  A
C481        H489   1.083   1_554  S
C482        H490   1.083       .  S
C491        C492   1.405       .  A
C491        C496   1.406       .  A
C492        C493   1.398       .  A
C492        H505   1.082       .  S
C493        C494   1.400       .  A
C493        H506   1.084       .  S
C494        C495   1.401       .  A
C494        C497   1.443       .  S
C495        C496   1.400       .  A
C495        H507   1.083       .  S
C496        H508   1.083       .  S
C497        C498   1.208       .  T
C498        C499   1.442       .  S
C499        C500   1.401       .  A
C499        C504   1.399       .  A
C500        C501   1.401       .  A
C500        H509   1.083       .  S
C501        C502   1.408       .  A
C501        H510   1.083       .  S
C502        C503   1.408       .  A
C503        C504   1.398       .  A
C503        H511   1.083       .  S
C504        H512   1.084       .  S
C513        C514   1.408       .  A
C513        C518   1.408   1_545  A
C514        C515   1.400       .  A
C514        H527   1.083       .  S
C515        C516   1.400       .  A
C515        H528   1.084       .  S
C516        C517   1.399   1_545  A
C516        C519   1.442       .  S
C517        C518   1.399       .  A
C517        H529   1.083       .  S
C518        H530   1.083       .  S
C519        C520   1.207       .  T
C520        C521   1.441       .  S
C521        C522   1.403       .  A
C521        C526   1.399       .  A
C522        C523   1.402       .  A
C522        H531   1.083   1_545  S
C523        C524   1.404       .  A
C523       H1308   1.083   1_545  S
C524        C525   1.403       .  A
C525        C526   1.396       .  A
C525        H533   1.083       .  S
C526        H534   1.084       .  S
H532       C1299   1.083   1_565  S
C535        C536   1.404   1_545  A
C535        C540   1.405       .  A
C536        C537   1.395       .  A
C536        H549   1.083       .  S
C537        C538   1.398       .  A
C537        H550   1.084       .  S
C538        C539   1.403   1_565  A
C538        C541   1.441       .  S
C539        C540   1.403       .  A
C539        H551   1.083       .  S
C540        H552   1.083       .  S
C541        C542   1.207       .  T
C542        C543   1.441       .  S
C543        C544   1.400       .  A
C543        C548   1.399   1_565  A
C544        C545   1.400       .  A
C544        H553   1.083       .  S
C545        C546   1.408       .  A
C545        H554   1.083       .  S
C546        C547   1.408   1_565  A
C547        C548   1.398       .  A
C547        H555   1.083       .  S
C548        H556   1.084       .  S
C557        C558   1.405       .  A
C557        C562   1.405   1_545  A
C558        C559   1.399       .  A
C558        H571   1.081       .  S
C559        C560   1.400       .  A
C559        H572   1.084       .  S
C560        C561   1.401   1_545  A
C560        C563   1.442       .  S
C561        C562   1.400       .  A
C561        H573   1.083       .  S
C562       H1350   1.083       .  S
C563        C564   1.207       .  T
C564        C565   1.442       .  S
C565        C566   1.399       .  A
C565        C570   1.401       .  A
C566        C567   1.397       .  A
C566        H575   1.084       .  S
C567        C568   1.408       .  A
C567        H576   1.083       .  S
C568        C569   1.408       .  A
C569        C570   1.402       .  A
C569        H577   1.083       .  S
C570        H578   1.083       .  S
H574       C1338   1.083       .  S
C579        C580   1.405       .  A
C579        C584   1.404   1_565  A
C580        C581   1.403       .  A
C580        H593   1.083       .  S
C581        C582   1.403       .  A
C581        H594   1.083       .  S
C582        C583   1.398   1_565  A
C582        C585   1.440       .  S
C583        C584   1.394       .  A
C583        H595   1.084       .  S
C584       H1372   1.083       .  S
C585        C586   1.207       .  T
C586        C587   1.441       .  S
C587        C588   1.399   1_565  A
C587        C592   1.400       .  A
C588        C589   1.397       .  A
C588        H597   1.084       .  S
C589        C590   1.407       .  A
C589        H598   1.083       .  S
C590        C591   1.409   1_545  A
C591        C592   1.401       .  A
C591        H599   1.083       .  S
C592        H600   1.083       .  S
H596       C1360   1.083       .  S
C601        C602   1.409       .  A
C601        C606   1.407       .  A
C602        C603   1.400       .  A
C602        H615   1.083       .  S
C603        C604   1.399       .  A
C603        H616   1.083       .  S
C604        C605   1.399   1_545  A
C604        C607   1.440       .  S
C605        C606   1.397   1_565  A
C605        H617   1.084       .  S
C606        H618   1.083   1_545  S
C607        C608   1.206       .  T
C608        C609   1.439   1_545  S
C609        C610   1.399       .  A
C609        C614   1.402   1_565  A
C610        C611   1.395       .  A
C610        H619   1.084       .  S
C611        C612   1.403       .  A
C611        H620   1.083       .  S
C612        C613   1.405   1_565  A
C613        C614   1.401       .  A
C613        H621   1.083   1_554  S
C614        H622   1.083       .  S
C623        C624   1.406   1_565  A
C623        C628   1.405       .  A
C624        C625   1.402   1_545  A
C624        H637   1.082       .  S
C625        C626   1.402       .  A
C625        H638   1.083   1_565  S
C626        C627   1.400       .  A
C626        C629   1.444       .  S
C627        C628   1.398       .  A
C627        H639   1.083       .  S
C628        H640   1.083       .  S
C629        C630   1.209       .  T
C630        C631   1.444       .  S
C631        C632   1.400       .  A
C631        C636   1.401       .  A
C632        C633   1.399       .  A
C632        H641   1.084       .  S
C633        C634   1.408       .  A
C633        H642   1.083       .  S
C634        C635   1.409       .  A
C635        C636   1.402       .  A
C635        H643   1.083       .  S
C636        H644   1.083       .  S
C645        C646   1.408       .  A
C645        C650   1.409       .  A
C646        C647   1.399       .  A
C646        H659   1.083   1_655  S
C647        C648   1.400       .  A
C647        H660   1.084   1_655  S
C648        C649   1.399       .  A
C648        C651   1.442       .  S
C649        C650   1.400       .  A
C649        H661   1.083       .  S
C650        H662   1.083       .  S
C651        C652   1.207       .  T
C652        C653   1.441       .  S
C653        C654   1.398       .  A
C653        C658   1.403   1_655  A
C654        C655   1.395       .  A
C654        H663   1.084       .  S
C655        C656   1.405       .  A
C655        H664   1.083       .  S
C656        C657   1.405   1_655  A
C657        C658   1.402       .  A
C657        H665   1.083       .  S
C658        H666   1.083       .  S
C667        C668   1.408       .  A
C667        C672   1.408       .  A
C668        C669   1.402       .  A
C668        H681   1.083       .  S
C669        C670   1.401       .  A
C669        H682   1.083       .  S
C670        C671   1.398       .  A
C670        C673   1.441       .  S
C671        C672   1.396       .  A
C671        H683   1.084       .  S
C672        H684   1.083       .  S
C673        C674   1.207       .  T
C674        C675   1.441       .  S
C675        C676   1.401   1_455  A
C675        C680   1.400       .  A
C676        C677   1.399       .  A
C676        H685   1.083       .  S
C677        C678   1.404   1_655  A
C677        H686   1.082       .  S
C678        C679   1.406       .  A
C679        C680   1.398       .  A
C679        H687   1.082       .  S
C680        H688   1.084       .  S
C689        C690   1.405   1_455  A
C689        C694   1.404       .  A
C690        C691   1.400       .  A
C690        H703   1.083       .  S
C691        C692   1.401   1_655  A
C691        H704   1.083       .  S
C692        C693   1.399       .  A
C692        C695   1.439       .  S
C693        C694   1.396       .  A
C693        H705   1.084       .  S
C694        H706   1.083       .  S
C695        C696   1.206       .  T
C696        C697   1.439       .  S
C697        C698   1.399       .  A
C697        C702   1.400   1_455  A
C698        C699   1.397       .  A
C698        H707   1.084       .  S
C699        C700   1.408   1_455  A
C699        H708   1.083       .  S
C700        C701   1.408       .  A
C701        C702   1.399       .  A
C701        H709   1.083       .  S
C702        H710   1.084       .  S
C711        C712   1.405       .  A
C711        C716   1.403   1_655  A
C712        C713   1.401       .  A
C712        H725   1.083       .  S
C713        C714   1.402   1_655  A
C713        H726   1.083       .  S
C714        C715   1.398       .  A
C714        C717   1.439       .  S
C715        C716   1.395       .  A
C715        H727   1.083       .  S
C716        H728   1.083       .  S
C717        C718   1.206       .  T
C718        C719   1.439       .  S
C719        C720   1.399       .  A
C719        C724   1.400   1_455  A
C720        C721   1.399       .  A
C720        H729   1.083       .  S
C721        C722   1.409       .  A
C721        H730   1.083       .  S
C722        C723   1.407   1_455  A
C723        C724   1.398       .  A
C723        H731   1.083       .  S
C724        H732   1.084       .  S
C733        C734   1.404       .  A
C733        C738   1.404   1_655  A
C734        C735   1.399       .  A
C734        H747   1.082       .  S
C735        C736   1.401       .  A
C735        H748   1.084       .  S
C736        C737   1.401   1_655  A
C736        C739   1.442       .  S
C737        C738   1.399       .  A
C737        H749   1.083       .  S
C738        H750   1.083       .  S
C739        C740   1.207       .  T
C740        C741   1.442       .  S
C741        C742   1.402       .  A
C741        C746   1.398       .  A
C742        C743   1.402       .  A
C742        H751   1.083       .  S
C743        C744   1.408       .  A
C743        H752   1.083       .  S
C744        C745   1.408       .  A
C745        C746   1.396       .  A
C745        H753   1.083       .  S
C746        H754   1.084       .  S
C755        C756   1.408   1_655  A
C755        C760   1.408       .  A
C756        C757   1.400       .  A
C756        H769   1.083       .  S
C757        C758   1.400   1_455  A
C757        H770   1.084       .  S
C758        C759   1.399       .  A
C758        C761   1.440       .  S
C759        C760   1.398       .  A
C759        H771   1.084       .  S
C760        H772   1.083       .  S
C761        C762   1.206       .  T
C762        C763   1.440       .  S
C763        C764   1.399       .  A
C763        C768   1.402       .  A
C764        C765   1.395       .  A
C764        H773   1.084       .  S
C765        C766   1.404       .  A
C765        H774   1.083       .  S
C766        C767   1.405       .  A
C767        C768   1.401       .  A
C767        H775   1.083   1_655  S
C768        H776   1.083   1_655  S
N777        C778   1.357       .  A
N777       C1509   1.440       .  S
C778       C1542   1.478       .  S
C779        C780   1.373       .  A
C779        H782   1.082       .  S
C780        C781   1.382       .  A
C780        H783   1.082       .  S
C781       C1487   1.476       .  S
N784        C785   1.358       .  A
N784       C1454   1.442       .  S
C785       C1465   1.478       .  S
C786        C787   1.372       .  A
C786        H789   1.082       .  S
C787        C788   1.383       .  A
C787        H790   1.082       .  S
C788       C1432   1.481   1_455  S
N791        C792   1.359       .  A
N791       C1399   1.443       .  S
C792       C1355   1.477       .  S
C793        C794   1.370   1_545  A
C793        H796   1.082       .  S
C794        C795   1.381       .  A
C794        H797   1.082   1_565  S
C795       C1388   1.476       .  S
N798        C799   1.358       .  A
N798       C1333   1.442       .  S
C799       C1300   1.476       .  S
C800        C801   1.372       .  A
C800        H803   1.082       .  S
C801        C802   1.382       .  A
C801        H804   1.082       .  S
C802       C1311   1.477       .  S
N805        C806   1.357       .  A
N805       C1267   1.443       .  S
C806       C1234   1.474       .  S
C807        C808   1.372       .  A
C807        H810   1.082       .  S
C808        C809   1.383       .  A
C808        H811   1.082       .  S
C809       C1256   1.477       .  S
N812        C813   1.356       .  A
N812       C1201   1.438       .  S
C813       C1168   1.478       .  S
C814        C815   1.373       .  A
C814        H817   1.082       .  S
C815        C816   1.383       .  A
C815        H818   1.082       .  S
C816       C1190   1.481       .  S
N819        C820   1.357       .  A
N819       C1124   1.442       .  S
C820       C1135   1.475       .  S
C821        C822   1.371       .  A
C821        H824   1.082       .  S
C822        C823   1.383       .  A
C822        H825   1.082       .  S
C823       C1091   1.478       .  S
N826        C827   1.360       .  A
N826       C1047   1.444       .  S
C827       C1069   1.480       .  S
C828        C829   1.371       .  A
C828        H831   1.082       .  S
C829        C830   1.382       .  A
C829        H832   1.082       .  S
C830       C1025   1.480       .  S
O833       Mg835   2.128       .  S
O833       Mg841   2.141       .  S
O833        C868   1.238       .  S
C834        H873   1.081       .  S
C834        O847   1.238       .  S
C834        O871   1.272       .  A
Mg835       O864   2.140       .  S
Mg835       O879   2.312       .  S
Mg835       O875   2.256       .  S
Mg835       O846   2.300       .  S
O836       Mg878   2.136       .  S
O836       Mg861   2.130       .  S
O836        C857   1.238       .  S
O837        C868   1.272       .  A
O837       Mg861   2.302       .  S
C838       C1179   1.483       .  S
C838        O840   1.273       .  A
C838        O852   1.276       .  A
O839        C867   1.272       .  A
O839       Mg841   2.300       .  S
O840       Mg872   2.262       .  S
Mg841       O847   2.135       .  S
Mg841       O855   2.256       .  S
Mg841       O843   2.298       .  S
C842       C1080   1.485       .  S
C842        O880   1.273       .  A
C842        O848   1.276       .  A
O843        C850   1.274       .  A
H844        C857   1.081       .  S
C845        H870   1.081       .  S
C845        O859   1.239       .  S
C845        O860   1.272       .  A
O846        C869   1.271       .  A
O847       Mg861   2.142       .  S
O848       Mg878   2.311       .  S
C849       C1278   1.484       .  S
C849        O862   1.273       .  A
C849        O854   1.277       .  A
C850       C1245   1.480       .  S
C850        O877   1.272       .  A
Mg851       O858   2.134       .  S
Mg851       O859   2.141       .  S
Mg851       O852   2.309       .  S
Mg851       O853   2.300       .  S
Mg851       O880   2.264       .  S
O853        C857   1.272       .  A
O854       Mg861   2.320       .  S
O855        C874   1.272       .  A
O856        C876   1.278       .  A
O856       Mg872   2.322       .  S
O858       Mg872   2.137       .  S
O858        C869   1.237       .  S
O859       Mg878   2.131       .  S
O860       Mg872   2.302       .  S
Mg861       O877   2.258       .  S
O862       Mg878   2.259       .  S
H863        C868   1.081       .  S
O864       Mg872   2.136       .  S
O864        C867   1.238       .  S
H865        C867   1.081       .  S
H866        C869   1.081       .  S
O871       Mg878   2.303       .  S
C874       C1146   1.483       .  S
C874        O879   1.276       .  A
O875        C876   1.273       .  A
C876       C1212   1.483       .  S
O881       Mg883   2.132       .  S
O881       Mg889   2.140       .  S
O881        C916   1.238   1_545  S
C882        H921   1.081       .  S
C882        O895   1.237       .  S
C882        O919   1.271       .  A
Mg883       O912   2.140       .  S
Mg883       O927   2.311       .  S
Mg883       O923   2.259       .  S
Mg883       O894   2.299   1_545  S
O884       Mg926   2.141       .  S
O884       Mg909   2.132       .  S
O884        C905   1.239       .  S
O885        C916   1.272       .  A
O885       Mg909   2.303       .  S
C886       C1322   1.484       .  S
C886        O888   1.273   1_565  A
C886        O900   1.276       .  A
O887        C915   1.272       .  A
O887       Mg889   2.299       .  S
O888       Mg920   2.261       .  S
Mg889       O895   2.134       .  S
Mg889       O903   2.259       .  S
Mg889       O891   2.305       .  S
C890       C1223   1.482       .  S
C890        O928   1.272       .  A
C890        O896   1.277       .  A
O891        C898   1.275       .  A
H892        C905   1.081       .  S
C893        H918   1.082       .  S
C893        O907   1.239   1_545  S
C893        O908   1.273       .  A
O894        C917   1.271       .  A
O895       Mg909   2.139   1_545  S
O896       Mg926   2.314       .  S
C897       C1410   1.487       .  S
C897        O910   1.274       .  A
C897        O902   1.277       .  A
C898       C1377   1.482       .  S
C898        O925   1.273   1_545  A
Mg899       O906   2.130       .  S
Mg899       O907   2.141       .  S
Mg899       O900   2.311       .  S
Mg899       O901   2.301       .  S
Mg899       O928   2.252       .  S
O901        C905   1.272       .  A
O902       Mg909   2.319       .  S
O903        C922   1.272       .  A
O904        C924   1.277       .  A
O904       Mg920   2.318       .  S
O906       Mg920   2.139   1_565  S
O906        C917   1.238       .  S
O907       Mg926   2.137       .  S
O908       Mg920   2.304       .  S
Mg909       O925   2.262       .  S
O910       Mg926   2.269       .  S
H911        C916   1.082       .  S
O912       Mg920   2.128       .  S
O912        C915   1.238       .  S
H913        C915   1.081       .  S
H914        C917   1.081       .  S
O919       Mg926   2.300   1_545  S
C922       C1157   1.483       .  S
C922        O927   1.276       .  A
O923        C924   1.273       .  A
C924       C1344   1.484       .  S
O929       Mg931   2.131   1_565  S
O929       Mg937   2.139       .  S
O929        C964   1.238   1_455  S
C930        H969   1.081       .  S
C930        O943   1.237       .  S
C930        O967   1.271       .  A
Mg931       O960   2.142       .  S
Mg931       O975   2.308       .  S
Mg931       O971   2.250       .  S
Mg931       O942   2.300   1_455  S
O932       Mg974   2.140       .  S
O932       Mg957   2.136       .  S
O932        C953   1.238       .  S
O933        C964   1.272       .  A
O933       Mg957   2.304       .  S
C934       C1421   1.485       .  S
C934        O936   1.275       .  A
C934        O948   1.276       .  A
O935        C963   1.273       .  A
O935       Mg937   2.303   1_545  S
O936       Mg968   2.274   1_655  S
Mg937       O943   2.130       .  S
Mg937       O951   2.265       .  S
Mg937       O939   2.307       .  S
C938       C1366   1.484       .  S
C938        O976   1.273       .  A
C938        O944   1.275   1_545  A
O939        C946   1.276       .  A
H940        C953   1.081       .  S
C941        H966   1.081       .  S
C941        O955   1.237   1_455  S
C941        O956   1.271       .  A
O942        C965   1.271       .  A
O943       Mg957   2.139   1_455  S
O944       Mg974   2.307       .  S
C945       C1520   1.484       .  S
C945        O958   1.272       .  A
C945        O950   1.278       .  A
C946       C1498   1.482       .  S
C946        O973   1.274   1_455  A
Mg947       O954   2.134       .  S
Mg947       O955   2.142       .  S
Mg947       O948   2.306       .  S
Mg947       O949   2.300       .  S
Mg947       O976   2.264       .  S
O949        C953   1.272   1_545  A
O950       Mg957   2.330       .  S
O951        C970   1.272   1_565  A
O952        C972   1.278       .  A
O952       Mg968   2.325       .  S
O954       Mg968   2.145   1_655  S
O954        C965   1.238       .  S
O955       Mg974   2.134   1_545  S
O956       Mg968   2.300       .  S
Mg957       O973   2.268       .  S
O958       Mg974   2.250       .  S
H959        C964   1.081       .  S
O960       Mg968   2.141       .  S
O960        C963   1.239       .  S
H961        C963   1.081       .  S
H962        C965   1.081       .  S
O967       Mg974   2.298   1_455  S
C970       C1289   1.484       .  S
C970        O975   1.275       .  A
O971        C972   1.272       .  A
C972       C1443   1.484       .  S
O977       Mg979   2.141   1_655  S
O977       Mg985   2.146       .  S
O977       C1012   1.239       .  S
C978       H1017   1.081       .  S
C978        O991   1.238       .  S
C978       O1015   1.272       .  A
Mg979      O1008   2.139       .  S
Mg979      O1023   2.303       .  S
Mg979      O1019   2.272       .  S
Mg979       O990   2.297       .  S
O980      Mg1022   2.136       .  S
O980      Mg1005   2.130       .  S
O980       C1001   1.239       .  S
O981       C1012   1.273       .  A
O981      Mg1005   2.306       .  S
C982       C1102   1.480       .  S
C982        O984   1.273       .  A
C982        O996   1.276       .  A
O983       C1011   1.272   1_655  A
O983       Mg985   2.302       .  S
O984      Mg1016   2.258       .  S
Mg985       O991   2.136       .  S
Mg985       O999   2.266       .  S
Mg985       O987   2.320       .  S
C986       C1531   1.484   1_455  S
C986       O1024   1.273       .  A
C986        O992   1.275   1_455  A
O987        C994   1.277       .  A
H988       C1001   1.081       .  S
C989       H1014   1.082       .  S
C989       O1003   1.238       .  S
C989       O1004   1.272       .  A
O990       C1013   1.271       .  A
O991      Mg1005   2.137       .  S
O992      Mg1022   2.303       .  S
C993       C1058   1.486       .  S
C993       O1006   1.272       .  A
C993        O998   1.278       .  A
C994       C1036   1.485       .  S
C994       O1021   1.273       .  A
Mg995      O1002   2.134       .  S
Mg995      O1003   2.139       .  S
Mg995       O996   2.303       .  S
Mg995       O997   2.300       .  S
Mg995      O1024   2.269       .  S
O997       C1001   1.273   1_455  A
O998      Mg1005   2.329       .  S
O999       C1018   1.273       .  A
O1000      C1020   1.278       .  A
O1000     Mg1016   2.329       .  S
O1002     Mg1016   2.139       .  S
O1002      C1013   1.237       .  S
O1003     Mg1022   2.127   1_455  S
O1004     Mg1016   2.302       .  S
Mg1005     O1021   2.258       .  S
O1006     Mg1022   2.255       .  S
H1007      C1012   1.081       .  S
O1008     Mg1016   2.132       .  S
O1008      C1011   1.239       .  S
H1009      C1011   1.081       .  S
H1010      C1013   1.081       .  S
O1015     Mg1022   2.301       .  S
C1018      C1476   1.483       .  S
C1018      O1023   1.276   1_655  A
O1019      C1020   1.274       .  A
C1020      C1113   1.489       .  S
C1025      C1026   1.405       .  A
C1025      C1030   1.404       .  A
C1026      C1027   1.403       .  A
C1026      H1039   1.083       .  S
C1027      C1028   1.403       .  A
C1027      H1040   1.083       .  S
C1028      C1029   1.398       .  A
C1028      C1031   1.442       .  S
C1029      C1030   1.395       .  A
C1029      H1041   1.083       .  S
C1030      H1042   1.083       .  S
C1031      C1032   1.208       .  T
C1032      C1033   1.442       .  S
C1033      C1034   1.399       .  A
C1033      C1038   1.401       .  A
C1034      C1035   1.397       .  A
C1034      H1043   1.084       .  S
C1035      C1036   1.408       .  A
C1035      H1044   1.083       .  S
C1036      C1037   1.408       .  A
C1037      C1038   1.401       .  A
C1037      H1045   1.083       .  S
C1038      H1046   1.083       .  S
C1047      C1048   1.406       .  A
C1047      C1052   1.406       .  A
C1048      C1049   1.400       .  A
C1048      H1061   1.082       .  S
C1049      C1050   1.401       .  A
C1049      H1062   1.083       .  S
C1050      C1051   1.401       .  A
C1050      C1053   1.444       .  S
C1051      C1052   1.399       .  A
C1051      H1063   1.083       .  S
C1052      H1064   1.082       .  S
C1053      C1054   1.208       .  T
C1054      C1055   1.444       .  S
C1055      C1056   1.401       .  A
C1055      C1060   1.399       .  A
C1056      C1057   1.402       .  A
C1056      H1065   1.083       .  S
C1057      C1058   1.408       .  A
C1057      H1066   1.083       .  S
C1058      C1059   1.409       .  A
C1059      C1060   1.398       .  A
C1059      H1067   1.083       .  S
C1060      H1068   1.084       .  S
C1069      C1070   1.406       .  A
C1069      C1074   1.405       .  A
C1070      C1071   1.403       .  A
C1071      C1072   1.403       .  A
C1071      H1084   1.083       .  S
C1072      C1073   1.398       .  A
C1072      C1075   1.441       .  S
C1073      C1074   1.395       .  A
C1073      H1085   1.084       .  S
C1074      H1086   1.083       .  S
C1075      C1076   1.207       .  T
C1076      C1077   1.442       .  S
C1077      C1078   1.400       .  A
C1077      C1082   1.399       .  A
C1078      C1079   1.400       .  A
C1078      H1087   1.084       .  S
C1079      C1080   1.408       .  A
C1079      H1088   1.083       .  S
C1080      C1081   1.408       .  A
C1081      C1082   1.399       .  A
C1081      H1089   1.083       .  S
C1082      H1090   1.083       .  S
C1091      C1092   1.405       .  A
C1091      C1096   1.405       .  A
C1092      C1093   1.393       .  A
C1092      H1105   1.083       .  S
C1093      C1094   1.397       .  A
C1093      H1106   1.084       .  S
C1094      C1095   1.402       .  A
C1094      C1097   1.437       .  S
C1095      C1096   1.401       .  A
C1095      H1107   1.083       .  S
C1096      H1108   1.082       .  S
C1097      C1098   1.204       .  T
C1098      C1099   1.437       .  S
C1099      C1100   1.399       .  A
C1099      C1104   1.399       .  A
C1100      C1101   1.399       .  A
C1100      H1109   1.083       .  S
C1101      C1102   1.409       .  A
C1101      H1110   1.083       .  S
C1102      C1103   1.407       .  A
C1103      C1104   1.396       .  A
C1103      H1111   1.083       .  S
C1104      H1112   1.084       .  S
C1113      C1114   1.410       .  A
C1113      C1118   1.408       .  A
C1114      C1115   1.404       .  A
C1114      H1127   1.083       .  S
C1115      C1116   1.402       .  A
C1115      H1128   1.083       .  S
C1116      C1117   1.399       .  A
C1116      C1119   1.447       .  S
C1117      C1118   1.399       .  A
C1117      H1129   1.084       .  S
C1118      H1130   1.083       .  S
C1119      C1120   1.210       .  T
C1120      C1121   1.447       .  S
C1121      C1122   1.401       .  A
C1121      C1126   1.403       .  A
C1122      C1123   1.400       .  A
C1122      H1131   1.083       .  S
C1123      C1124   1.405       .  A
C1124      C1125   1.404       .  A
C1125      C1126   1.402       .  A
C1125      H1133   1.082       .  S
C1126      H1134   1.083       .  S
C1135      C1136   1.403       .  A
C1135      C1140   1.405       .  A
C1136      C1137   1.394       .  A
C1137      C1138   1.398       .  A
C1137      H1150   1.084       .  S
C1138      C1139   1.402       .  A
C1138      C1141   1.438       .  S
C1139      C1140   1.401       .  A
C1139      H1151   1.083       .  S
C1140      H1152   1.083       .  S
C1141      C1142   1.205       .  T
C1142      C1143   1.438       .  S
C1143      C1144   1.399       .  A
C1143      C1148   1.400       .  A
C1144      C1145   1.398       .  A
C1144      H1153   1.084       .  S
C1145      C1146   1.409       .  A
C1145      H1154   1.083       .  S
C1146      C1147   1.407       .  A
C1147      C1148   1.398       .  A
C1147      H1155   1.083       .  S
C1148      H1156   1.084       .  S
C1157      C1158   1.408       .  A
C1157      C1162   1.408       .  A
C1158      C1159   1.397       .  A
C1158      H1171   1.083       .  S
C1159      C1160   1.399       .  A
C1159      H1172   1.084       .  S
C1160      C1161   1.400       .  A
C1160      C1163   1.440       .  S
C1161      C1162   1.400       .  A
C1161      H1173   1.083       .  S
C1162      H1174   1.083       .  S
C1163      C1164   1.206       .  T
C1164      C1165   1.439       .  S
C1165      C1166   1.403       .  A
C1165      C1170   1.398       .  A
C1166      C1167   1.403       .  A
C1166      H1175   1.083       .  S
C1167      C1168   1.405       .  A
C1167      H1176   1.083       .  S
C1168      C1169   1.404       .  A
C1169      C1170   1.393       .  A
C1169      H1177   1.083       .  S
C1170      H1178   1.084       .  S
C1179      C1180   1.409       .  A
C1179      C1184   1.407       .  A
C1180      C1181   1.401       .  A
C1180      H1193   1.083       .  S
C1181      C1182   1.400       .  A
C1181      H1194   1.083       .  S
C1182      C1183   1.398       .  A
C1182      C1185   1.440       .  S
C1183      C1184   1.396       .  A
C1183      H1195   1.084       .  S
C1184      H1196   1.083       .  S
C1185      C1186   1.206       .  T
C1186      C1187   1.440       .  S
C1187      C1188   1.399       .  A
C1187      C1192   1.401       .  A
C1188      C1189   1.396       .  A
C1188      H1197   1.084       .  S
C1189      C1190   1.405       .  A
C1189      H1198   1.083       .  S
C1190      C1191   1.407       .  A
C1191      C1192   1.401       .  A
C1191      H1199   1.082   1_556  S
C1192      H1200   1.083       .  S
C1201      C1202   1.404       .  A
C1201      C1206   1.403       .  A
C1202      C1203   1.400       .  A
C1202      H1215   1.083       .  S
C1203      C1204   1.402       .  A
C1203      H1216   1.083       .  S
C1204      C1205   1.400       .  A
C1204      C1207   1.441       .  S
C1205      C1206   1.397       .  A
C1205      H1217   1.084       .  S
C1206      H1218   1.083       .  S
C1207      C1208   1.207       .  T
C1208      C1209   1.441       .  S
C1209      C1210   1.399       .  A
C1209      C1214   1.401       .  A
C1210      C1211   1.397       .  A
C1210      H1219   1.084       .  S
C1211      C1212   1.408       .  A
C1211      H1220   1.083       .  S
C1212      C1213   1.408       .  A
C1213      C1214   1.401       .  A
C1213      H1221   1.083       .  S
C1214      H1222   1.083       .  S
C1223      C1224   1.407       .  A
C1223      C1228   1.408       .  A
C1224      C1225   1.399       .  A
C1224      H1237   1.083       .  S
C1225      C1226   1.400       .  A
C1225      H1238   1.083       .  S
C1226      C1227   1.398       .  A
C1226      C1229   1.438       .  S
C1227      C1228   1.397       .  A
C1227      H1239   1.084       .  S
C1228      H1240   1.083       .  S
C1229      C1230   1.205       .  T
C1230      C1231   1.438       .  S
C1231      C1232   1.399       .  A
C1231      C1236   1.402       .  A
C1232      C1233   1.394       .  A
C1232      H1241   1.084       .  S
C1233      C1234   1.403       .  A
C1234      C1235   1.404       .  A
C1235      C1236   1.401       .  A
C1235      H1243   1.083       .  S
C1236      H1244   1.083       .  S
C1245      C1246   1.409       .  A
C1245      C1250   1.407       .  A
C1246      C1247   1.399       .  A
C1246      H1259   1.083       .  S
C1247      C1248   1.399       .  A
C1247      H1260   1.083       .  S
C1248      C1249   1.398       .  A
C1248      C1251   1.437       .  S
C1249      C1250   1.395       .  A
C1249      H1261   1.084       .  S
C1250      H1262   1.083       .  S
C1251      C1252   1.204       .  T
C1252      C1253   1.437       .  S
C1253      C1254   1.398       .  A
C1253      C1258   1.401       .  A
C1254      C1255   1.394       .  A
C1254      H1263   1.084       .  S
C1255      C1256   1.403       .  A
C1255      H1264   1.083       .  S
C1256      C1257   1.405       .  A
C1257      C1258   1.400       .  A
C1257      H1265   1.083       .  S
C1258      H1266   1.083       .  S
C1267      C1268   1.405       .  A
C1267      C1272   1.406       .  A
C1268      C1269   1.398       .  A
C1268      H1281   1.082       .  S
C1269      C1270   1.400       .  A
C1269      H1282   1.084       .  S
C1270      C1271   1.401       .  A
C1270      C1273   1.443       .  S
C1271      C1272   1.400       .  A
C1271      H1283   1.083       .  S
C1272      H1284   1.083       .  S
C1273      C1274   1.208       .  T
C1274      C1275   1.442       .  S
C1275      C1276   1.401       .  A
C1275      C1280   1.399       .  A
C1276      C1277   1.401       .  A
C1276      H1285   1.083       .  S
C1277      C1278   1.408       .  A
C1277      H1286   1.083       .  S
C1278      C1279   1.408       .  A
C1279      C1280   1.398       .  A
C1279      H1287   1.083       .  S
C1280      H1288   1.084       .  S
C1289      C1290   1.408       .  A
C1289      C1294   1.408   1_545  A
C1290      C1291   1.400       .  A
C1290      H1303   1.083       .  S
C1291      C1292   1.400       .  A
C1291      H1304   1.084       .  S
C1292      C1293   1.399   1_545  A
C1292      C1295   1.442       .  S
C1293      C1294   1.399       .  A
C1293      H1305   1.083       .  S
C1294      H1306   1.083       .  S
C1295      C1296   1.207       .  T
C1296      C1297   1.441       .  S
C1297      C1298   1.403       .  A
C1297      C1302   1.399       .  A
C1298      C1299   1.402       .  A
C1298      H1307   1.083   1_545  S
C1299      C1300   1.404       .  A
C1300      C1301   1.403       .  A
C1301      C1302   1.396       .  A
C1301      H1309   1.083       .  S
C1302      H1310   1.084       .  S
C1311      C1312   1.404   1_545  A
C1311      C1316   1.405       .  A
C1312      C1313   1.395       .  A
C1312      H1325   1.083       .  S
C1313      C1314   1.398       .  A
C1313      H1326   1.084       .  S
C1314      C1315   1.403   1_565  A
C1314      C1317   1.441       .  S
C1315      C1316   1.403       .  A
C1315      H1327   1.083       .  S
C1316      H1328   1.083       .  S
C1317      C1318   1.207       .  T
C1318      C1319   1.441       .  S
C1319      C1320   1.400       .  A
C1319      C1324   1.399   1_565  A
C1320      C1321   1.400       .  A
C1320      H1329   1.083       .  S
C1321      C1322   1.408       .  A
C1321      H1330   1.083       .  S
C1322      C1323   1.408   1_565  A
C1323      C1324   1.398       .  A
C1323      H1331   1.083       .  S
C1324      H1332   1.084       .  S
C1333      C1334   1.405       .  A
C1333      C1338   1.405   1_545  A
C1334      C1335   1.399       .  A
C1334      H1347   1.081       .  S
C1335      C1336   1.400       .  A
C1335      H1348   1.084       .  S
C1336      C1337   1.401   1_545  A
C1336      C1339   1.442       .  S
C1337      C1338   1.400       .  A
C1337      H1349   1.083       .  S
C1339      C1340   1.207       .  T
C1340      C1341   1.442       .  S
C1341      C1342   1.399       .  A
C1341      C1346   1.401       .  A
C1342      C1343   1.397       .  A
C1342      H1351   1.084       .  S
C1343      C1344   1.408       .  A
C1343      H1352   1.083       .  S
C1344      C1345   1.408       .  A
C1345      C1346   1.402       .  A
C1345      H1353   1.083       .  S
C1346      H1354   1.083       .  S
C1355      C1356   1.405       .  A
C1355      C1360   1.404   1_565  A
C1356      C1357   1.403       .  A
C1356      H1369   1.083       .  S
C1357      C1358   1.403       .  A
C1357      H1370   1.083       .  S
C1358      C1359   1.398   1_565  A
C1358      C1361   1.440       .  S
C1359      C1360   1.394       .  A
C1359      H1371   1.084       .  S
C1361      C1362   1.207       .  T
C1362      C1363   1.441       .  S
C1363      C1364   1.399   1_565  A
C1363      C1368   1.400       .  A
C1364      C1365   1.397       .  A
C1364      H1373   1.084       .  S
C1365      C1366   1.407       .  A
C1365      H1374   1.083       .  S
C1366      C1367   1.409   1_545  A
C1367      C1368   1.401       .  A
C1367      H1375   1.083       .  S
C1368      H1376   1.083       .  S
C1377      C1378   1.409       .  A
C1377      C1382   1.407       .  A
C1378      C1379   1.400       .  A
C1378      H1391   1.083       .  S
C1379      C1380   1.399       .  A
C1379      H1392   1.083       .  S
C1380      C1381   1.399   1_545  A
C1380      C1383   1.440       .  S
C1381      C1382   1.397   1_565  A
C1381      H1393   1.084       .  S
C1382      H1394   1.083   1_545  S
C1383      C1384   1.206       .  T
C1384      C1385   1.439   1_545  S
C1385      C1386   1.399       .  A
C1385      C1390   1.402   1_565  A
C1386      C1387   1.395       .  A
C1386      H1395   1.084       .  S
C1387      C1388   1.403       .  A
C1387      H1396   1.083       .  S
C1388      C1389   1.405   1_565  A
C1389      C1390   1.401       .  A
C1389      H1397   1.083       .  S
C1390      H1398   1.083       .  S
C1399      C1400   1.406   1_565  A
C1399      C1404   1.405       .  A
C1400      C1401   1.402   1_545  A
C1400      H1413   1.082       .  S
C1401      C1402   1.402       .  A
C1401      H1414   1.083   1_565  S
C1402      C1403   1.400       .  A
C1402      C1405   1.444       .  S
C1403      C1404   1.398       .  A
C1403      H1415   1.083       .  S
C1404      H1416   1.083       .  S
C1405      C1406   1.209       .  T
C1406      C1407   1.444       .  S
C1407      C1408   1.400       .  A
C1407      C1412   1.401       .  A
C1408      C1409   1.399       .  A
C1408      H1417   1.084       .  S
C1409      C1410   1.408       .  A
C1409      H1418   1.083       .  S
C1410      C1411   1.409       .  A
C1411      C1412   1.402       .  A
C1411      H1419   1.083       .  S
C1412      H1420   1.083       .  S
C1421      C1422   1.408       .  A
C1421      C1426   1.409       .  A
C1422      C1423   1.399       .  A
C1422      H1435   1.083   1_655  S
C1423      C1424   1.400       .  A
C1423      H1436   1.084   1_655  S
C1424      C1425   1.399       .  A
C1424      C1427   1.442       .  S
C1425      C1426   1.400       .  A
C1425      H1437   1.083       .  S
C1426      H1438   1.083       .  S
C1427      C1428   1.207       .  T
C1428      C1429   1.441       .  S
C1429      C1430   1.398       .  A
C1429      C1434   1.403   1_655  A
C1430      C1431   1.395       .  A
C1430      H1439   1.084       .  S
C1431      C1432   1.405       .  A
C1431      H1440   1.083       .  S
C1432      C1433   1.405   1_655  A
C1433      C1434   1.402       .  A
C1433      H1441   1.083       .  S
C1434      H1442   1.083       .  S
C1443      C1444   1.408       .  A
C1443      C1448   1.408       .  A
C1444      C1445   1.402       .  A
C1444      H1457   1.083       .  S
C1445      C1446   1.401       .  A
C1445      H1458   1.083       .  S
C1446      C1447   1.398       .  A
C1446      C1449   1.441       .  S
C1447      C1448   1.396       .  A
C1447      H1459   1.084       .  S
C1448      H1460   1.083       .  S
C1449      C1450   1.207       .  T
C1450      C1451   1.441       .  S
C1451      C1452   1.401   1_455  A
C1451      C1456   1.400       .  A
C1452      C1453   1.399       .  A
C1452      H1461   1.083       .  S
C1453      C1454   1.404   1_655  A
C1453      H1462   1.082       .  S
C1454      C1455   1.406       .  A
C1455      C1456   1.398       .  A
C1455      H1463   1.082       .  S
C1456      H1464   1.084       .  S
C1465      C1466   1.405   1_455  A
C1465      C1470   1.404       .  A
C1466      C1467   1.400       .  A
C1466      H1479   1.083       .  S
C1467      C1468   1.401   1_655  A
C1467      H1480   1.083       .  S
C1468      C1469   1.399       .  A
C1468      C1471   1.439       .  S
C1469      C1470   1.396       .  A
C1469      H1481   1.084       .  S
C1470      H1482   1.083       .  S
C1471      C1472   1.206       .  T
C1472      C1473   1.439       .  S
C1473      C1474   1.399       .  A
C1473      C1478   1.400   1_455  A
C1474      C1475   1.397       .  A
C1474      H1483   1.084       .  S
C1475      C1476   1.408   1_455  A
C1475      H1484   1.083       .  S
C1476      C1477   1.408       .  A
C1477      C1478   1.399       .  A
C1477      H1485   1.083       .  S
C1478      H1486   1.084       .  S
C1487      C1488   1.405       .  A
C1487      C1492   1.403   1_655  A
C1488      C1489   1.401       .  A
C1488      H1501   1.083       .  S
C1489      C1490   1.402   1_655  A
C1489      H1502   1.083       .  S
C1490      C1491   1.398       .  A
C1490      C1493   1.439       .  S
C1491      C1492   1.395       .  A
C1491      H1503   1.083       .  S
C1492      H1504   1.083       .  S
C1493      C1494   1.206       .  T
C1494      C1495   1.439       .  S
C1495      C1496   1.399       .  A
C1495      C1500   1.400   1_455  A
C1496      C1497   1.399       .  A
C1496      H1505   1.083       .  S
C1497      C1498   1.409       .  A
C1497      H1506   1.083       .  S
C1498      C1499   1.407   1_455  A
C1499      C1500   1.398       .  A
C1499      H1507   1.083       .  S
C1500      H1508   1.084       .  S
C1509      C1510   1.404       .  A
C1509      C1514   1.404   1_655  A
C1510      C1511   1.399       .  A
C1510      H1523   1.082       .  S
C1511      C1512   1.401       .  A
C1511      H1524   1.084       .  S
C1512      C1513   1.401   1_655  A
C1512      C1515   1.442       .  S
C1513      C1514   1.399       .  A
C1513      H1525   1.083       .  S
C1514      H1526   1.083       .  S
C1515      C1516   1.207       .  T
C1516      C1517   1.442       .  S
C1517      C1518   1.402       .  A
C1517      C1522   1.398       .  A
C1518      C1519   1.402       .  A
C1518      H1527   1.083       .  S
C1519      C1520   1.408       .  A
C1519      H1528   1.083       .  S
C1520      C1521   1.408       .  A
C1521      C1522   1.396       .  A
C1521      H1529   1.083       .  S
C1522      H1530   1.084       .  S
C1531      C1532   1.408   1_655  A
C1531      C1536   1.408       .  A
C1532      C1533   1.400       .  A
C1532      H1545   1.083       .  S
C1533      C1534   1.400   1_455  A
C1533      H1546   1.084       .  S
C1534      C1535   1.399       .  A
C1534      C1537   1.440       .  S
C1535      C1536   1.398       .  A
C1535      H1547   1.084       .  S
C1536      H1548   1.083       .  S
C1537      C1538   1.206       .  T
C1538      C1539   1.440       .  S
C1539      C1540   1.399       .  A
C1539      C1544   1.402       .  A
C1540      C1541   1.395       .  A
C1540      H1549   1.084       .  S
C1541      C1542   1.404       .  A
C1541      H1550   1.083       .  S
C1542      C1543   1.405       .  A
C1543      C1544   1.401       .  A
C1543      H1551   1.083   1_655  S
C1544      H1552   1.083   1_655  S
