geometry optimzed in LAMMPS
_audit_creation_date              2020-12-01 
_audit_creation_method            'lammps2cif' 
_symmetry_space_group_name_H-M    'P1' 
_symmetry_Int_Tables_number       1 
_symmetry_cell_setting            triclinic 
loop_ 
_symmetry_equiv_pos_as_xyz 
  x,y,z 
_cell_length_a                    36.72125465 
_cell_length_b                    29.239754481685573 
_cell_length_c                    46.64244576275875 
_cell_angle_alpha                 90.01369690550585 
_cell_angle_beta                  89.99997516166567 
_cell_angle_gamma                 90.03817943662571 
loop_ 
_atom_site_label 
_atom_site_type_symbol 
_atom_site_fract_x 
_atom_site_fract_y 
_atom_site_fract_z 
_atom_site_charge 
O1          O  0.60470516  0.29538217  0.06582431    -0.73700
O2          O  0.60178294  0.33232272  0.48323524    -0.74700
O3          O  0.55156036  0.31372023  0.02552353    -0.63300
O4          O  0.65939481  0.31372736  0.02405055    -0.71700
O5          O  0.65923049  0.23984359  0.51279925    -0.71300
O6          O  0.55137994  0.24071668  0.51180034    -0.62500
O7          O  0.60434152  0.25888118  0.47113093    -0.75000
O8          O  0.60150460  0.22180025  0.05422279    -0.73800
Cu9        Cu  0.60485533  0.31634907  0.02510112     1.04600
Cu10       Cu  0.60459645  0.23765880  0.51204046     1.04300
C11         C  0.60009906  0.25357925  0.07299726     0.92500
C12         C  0.60004499  0.30090773  0.46428986     0.91600
C13         C  0.53475038  0.27725456  0.51868606     0.83800
C14         C  0.67640671  0.27678128  0.01832820     0.90000
O15         O  0.42623562  0.25892511  0.47121774    -0.73700
O16         O  0.42905985  0.22184671  0.05429185    -0.74700
O17         O  0.37134422  0.23995844  0.51289945    -0.63300
O18         O  0.47919778  0.24073329  0.51185152    -0.71700
O19         O  0.47915100  0.31373589  0.02557680    -0.71300
O20         O  0.37131815  0.31384316  0.02414874    -0.62500
O21         O  0.42600105  0.29542665  0.06591062    -0.75000
O22         O  0.42894051  0.33236936  0.48330628    -0.73800
Cu23       Cu  0.42597341  0.23771658  0.51211946     1.04600
Cu24       Cu  0.42586264  0.31640719  0.02518061     1.04300
C25         C  0.43060721  0.30094031  0.46436648     0.92500
C26         C  0.43052955  0.25361131  0.07307267     0.91600
C27         C  0.35423728  0.27691735  0.51843047     0.83800
C28         C  0.49589429  0.27726271  0.51871495     0.90000
C29         C  0.43451335  0.30391972  0.38299638     0.85700
C30         C  0.43119026  0.35571443  0.38192392    -0.54500
C31         C  0.44908377  0.37896732  0.40324367     0.08600
C32         C  0.46905642  0.34623454  0.42413509     0.19600
C33         C  0.47531900  0.29458933  0.38356381    -0.55200
C34         C  0.49460764  0.31725714  0.40446691     0.08700
C35         C  0.42116785  0.29027580  0.41258495    -0.54800
C36         C  0.43868508  0.31238256  0.43429724     0.09300
H37         H  0.41561775  0.37145149  0.36493616     0.13800
H38         H  0.48340173  0.36355979  0.44196604    -0.00400
H39         H  0.48714869  0.27238222  0.36761341     0.14100
H40         H  0.39989009  0.26507753  0.41615485     0.13900
C41         C  0.43457392  0.25755972  0.15429750     0.85700
C42         C  0.43128883  0.20608046  0.15772743    -0.54500
C43         C  0.44900604  0.18046495  0.13743398     0.08600
C44         C  0.46877376  0.21076875  0.11490638     0.19600
C45         C  0.47537377  0.26687331  0.15306249    -0.55200
C46         C  0.49455691  0.24194658  0.13311790     0.08700
C47         C  0.42092430  0.26771203  0.12431427    -0.54800
C48         C  0.43822703  0.24340316  0.10344181     0.09300
H49         H  0.41597774  0.19233628  0.17552956     0.13800
H50         H  0.48299416  0.19152117  0.09780725    -0.00400
H51         H  0.48725970  0.29079313  0.16798831     0.14100
H52         H  0.39983190  0.29274983  0.11981861     0.13900
N53         N  0.37038873  0.29597190  0.20907745    -0.28100
N54         N  0.40062362  0.29165384  0.22410185    -0.35900
C55         C  0.42842987  0.28327677  0.20629706     0.00300
C56         C  0.41555260  0.28233558  0.17839174     0.06300
C57         C  0.37830582  0.28982192  0.18112235    -0.06800
H58         H  0.45529103  0.27319529  0.21342389     0.07000
H59         H  0.35805221  0.28638440  0.16441568     0.08200
Cu60       Cu  0.40220389  0.28559253  0.26807174     0.44200
Cu61       Cu  0.31975491  0.30061451  0.22878600     0.42000
Cu62       Cu  0.31954751  0.27273455  0.30658395     0.43900
N63         N  0.40041644  0.27741955  0.31191137    -0.35500
N64         N  0.36997501  0.27320739  0.32666732    -0.29700
C65         C  0.37781436  0.27650352  0.35481418    -0.05800
C66         C  0.41521913  0.28202481  0.35795245     0.06400
C67         C  0.42830036  0.28303972  0.33007796     0.00200
H68         H  0.35753485  0.27940941  0.37153814     0.07900
H69         H  0.45551129  0.29239540  0.32337756     0.06900
N70         N  0.27343928  0.28220974  0.28150904    -0.36900
N71         N  0.27347841  0.29511287  0.25427070    -0.29100
C72         C  0.23884331  0.30096917  0.24559154    -0.04300
C73         C  0.21616783  0.29048742  0.26825359     0.04300
C74         C  0.23881435  0.27850334  0.29058588     0.02400
H75         H  0.23078628  0.31076628  0.22414191     0.07500
H76         H  0.23078036  0.26857020  0.31201843     0.06300
C77         C  0.43456545  0.50751080  0.38769051     0.85700
C78         C  0.42091477  0.51764457  0.41767807    -0.54500
C79         C  0.43822812  0.49333990  0.43853924     0.08600
C80         C  0.46878824  0.46073149  0.42706108     0.19600
C81         C  0.47536161  0.51685032  0.38892804    -0.55200
C82         C  0.49455751  0.49191820  0.40885457     0.08700
C83         C  0.43130175  0.45602704  0.38423991    -0.54800
C84         C  0.44902958  0.43042214  0.40452733     0.09300
H85         H  0.39981127  0.54266580  0.42218512     0.13800
H86         H  0.48301859  0.44149343  0.44415303    -0.00400
H87         H  0.48723664  0.54078776  0.37401517     0.14100
H88         H  0.41599486  0.44227153  0.36643450     0.13900
C89         C  0.43449618  0.05398295  0.15899392     0.85700
C90         C  0.42115134  0.04028489  0.12940971    -0.54500
C91         C  0.43866135  0.06236568  0.10768936     0.08600
C92         C  0.46902291  0.09624780  0.11783635     0.19600
C93         C  0.47530632  0.04467330  0.15842516    -0.55200
C94         C  0.49458345  0.06730662  0.13750575     0.08700
C95         C  0.43116077  0.10577784  0.16004783    -0.54800
C96         C  0.44904994  0.12900717  0.13872048     0.09300
H97         H  0.39988099  0.01507131  0.12584837     0.13800
H98         H  0.48335952  0.11355398  0.09999849    -0.00400
H99         H  0.48714664  0.02250847  0.17438718     0.14100
H100        H  0.41558830  0.12153093  0.17703396     0.13900
N101        N  0.37037099  0.04600025  0.33294039    -0.28100
N102        N  0.40060713  0.04171063  0.31791245    -0.35900
C103        C  0.42841167  0.03329110  0.33570852     0.00300
C104        C  0.41553302  0.53229482  0.36361170     0.06300
C105        C  0.37828662  0.53979082  0.36088912    -0.06800
H106        H  0.45527428  0.52322796  0.32857161     0.07000
H107        H  0.35803277  0.53632767  0.37759260     0.08200
Cu108      Cu  0.40219434  0.03573011  0.27393655     0.44200
Cu109      Cu  0.31973693  0.05067997  0.31323271     0.42000
Cu110      Cu  0.31955536  0.02264216  0.23544226     0.43900
N111        N  0.40041775  0.02753484  0.23009503    -0.35500
N112        N  0.36998094  0.02323152  0.21534191    -0.29700
C113        C  0.37781519  0.02651600  0.18719305    -0.05800
C114        C  0.41521372  0.03211770  0.18405177     0.06400
C115        C  0.42829299  0.03319842  0.21192624     0.00200
H116        H  0.35753113  0.02934304  0.17046802     0.07900
H117        H  0.45549372  0.04261122  0.21862391     0.06900
N118        N  0.27343516  0.03216585  0.26050999    -0.36900
N119        N  0.27346717  0.04514979  0.28773746    -0.29100
C120        C  0.23883000  0.05105796  0.29640160    -0.04300
C121        C  0.21615806  0.04052536  0.27374270     0.04300
C122        C  0.23881127  0.02845347  0.25142825     0.02400
H123        H  0.23076801  0.06091992  0.31784133     0.07500
H124        H  0.23078227  0.01846160  0.23000235     0.06300
O125        O  0.60152291  0.47185852  0.98770116    -0.73700
O126        O  0.60434778  0.00897167  0.07078790    -0.74700
O127        O  0.55139238  0.49074793  0.03012818    -0.63300
O128        O  0.65923494  0.48997332  0.02911558    -0.71700
O129        O  0.65935961  0.06385740  0.01788432    -0.71300
O130        O  0.55152564  0.06374453  0.01641203    -0.62500
O131        O  0.60173600  0.08240889  0.05870123    -0.75000
O132        O  0.60468486  0.54543672  0.47610390    -0.73800
Cu133      Cu  0.60460833  0.48773812  0.02987991     1.04600
Cu134      Cu  0.60481959  0.06642482  0.01683207     1.04300
C135        C  0.60010191  0.50362438  0.46892926     0.92500
C136        C  0.60002097  0.05099349  0.07763849     0.91600
C137        C  0.53473934  0.52726897  0.02325393     0.83800
C138        C  0.67638975  0.02692539  0.02359699     0.90000
O139        O  0.42595504  0.54533650  0.47608486    -0.74500
O140        O  0.42890312  0.08229921  0.05868552    -0.74700
O141        O  0.47911299  0.06370038  0.01639922    -0.63300
O142        O  0.37127925  0.06369595  0.01786109    -0.71700
O143        O  0.37135912  0.48981308  0.02909165    -0.71300
O144        O  0.47921378  0.49070562  0.03011905    -0.62500
O145        O  0.42624794  0.00885922  0.07076991    -0.75000
O146        O  0.42908246  0.47176172  0.98768334    -0.73800
Cu147      Cu  0.42582109  0.06631950  0.01681430     1.04600
Cu148      Cu  0.42599191  0.48763372  0.02986202     1.04300
C149        C  0.43052125  0.50352869  0.46891140     0.92500
C150        C  0.43058976  0.05088435  0.07762295     0.91600
C151        C  0.49588333  0.52724530  0.02324785     0.83800
C152        C  0.35422456  0.02675235  0.02357263     0.90000
C153        C  0.59606806  0.50763679  0.38771030     0.85700
C154        C  0.59932858  0.45616175  0.38424760    -0.54500
C155        C  0.58160432  0.43051289  0.40452965     0.08600
C156        C  0.56183684  0.46078008  0.42706548     0.19600
C157        C  0.55527628  0.51692067  0.38894719    -0.55200
C158        C  0.53607348  0.49194370  0.40886050     0.08700
C159        C  0.60971733  0.51777204  0.41770035    -0.54800
C160        C  0.59239820  0.49343084  0.43855515     0.09300
H161        H  0.61464124  0.44244736  0.36644099     0.13800
H162        H  0.54760132  0.44150616  0.44414990    -0.00400
H163        H  0.54340824  0.54086860  0.37405037     0.14100
H164        H  0.63082475  0.54282135  0.42221285     0.13900
C165        C  0.59607372  0.05411871  0.15900750     0.85700
C166        C  0.59941298  0.10591922  0.16005419    -0.54500
C167        C  0.58153202  0.12910724  0.13871964     0.08600
C168        C  0.56156541  0.09630633  0.11783582     0.19600
C169        C  0.55526456  0.04474462  0.15843370    -0.55200
C170        C  0.53599573  0.06733554  0.13750643     0.08700
C171        C  0.60942965  0.04042586  0.12942930    -0.54800
C172        C  0.59193099  0.06246943  0.10770127     0.09300
H173        H  0.61497780  0.12170960  0.17704103     0.13800
H174        H  0.54723606  0.11357787  0.09999069    -0.00400
H175        H  0.54341815  0.02257955  0.17440375     0.14100
H176        H  0.63070008  0.01524475  0.12587702     0.13900
N177        N  0.66028405  0.04602851  0.33294784    -0.28100
N178        N  0.63001802  0.04188620  0.31793706    -0.35900
C179        C  0.60220518  0.53354679  0.33574893     0.00300
C180        C  0.61511454  0.53245854  0.36364399     0.06300
C181        C  0.65238146  0.53981081  0.36089686    -0.06800
H182        H  0.57530448  0.52358040  0.32862338     0.07000
H183        H  0.67264439  0.53621933  0.37758010     0.08200
Cu184      Cu  0.62838570  0.03596760  0.27395656     0.44200
Cu185      Cu  0.71090836  0.05048672  0.31322402     0.42000
Cu186      Cu  0.71100660  0.02270688  0.23541653     0.43900
N187        N  0.63014501  0.02776664  0.23011339    -0.35500
N188        N  0.66056558  0.02339849  0.21535132    -0.29700
C189        C  0.65272420  0.02665028  0.18720368    -0.05800
C190        C  0.61533683  0.03229672  0.18407364     0.06400
C191        C  0.60227206  0.03344048  0.21195004     0.00200
H192        H  0.67300478  0.02940751  0.17046929     0.07900
H193        H  0.57508858  0.04288582  0.21864861     0.06900
N194        N  0.75715803  0.03199446  0.26048911    -0.36900
N195        N  0.75715434  0.04486297  0.28773726    -0.29100
C196        C  0.79179990  0.05065915  0.29641705    -0.04300
C197        C  0.81444882  0.04017501  0.27374551     0.04300
C198        C  0.79177503  0.02825102  0.25140414     0.02400
H199        H  0.79987879  0.06045181  0.31786774     0.07500
H200        H  0.79978525  0.01836851  0.22995647     0.06300
C201        C  0.59609111  0.30406294  0.38291768     0.85700
C202        C  0.60944760  0.29035147  0.41248959    -0.54500
C203        C  0.59195987  0.31239739  0.43423006     0.08600
C204        C  0.56160346  0.34625547  0.42411332     0.19600
C205        C  0.55527703  0.29471385  0.38349249    -0.55200
C206        C  0.53602080  0.31729707  0.40443929     0.08700
C207        C  0.59944647  0.35586041  0.38189475    -0.54800
C208        C  0.58156930  0.37905445  0.40323564     0.09300
H209        H  0.63070891  0.26515639  0.41602857     0.13800
H210        H  0.54728374  0.36353272  0.44196676    -0.00400
H211        H  0.54341943  0.27257337  0.36750751     0.14100
H212        H  0.61501177  0.37164379  0.36491094     0.13900
C213        C  0.59608060  0.25770084  0.15421509     0.85700
C214        C  0.60972676  0.26778249  0.12422107    -0.54500
C215        C  0.59239524  0.24342112  0.10337451     0.08600
C216        C  0.56182419  0.21080349  0.11487792     0.19600
C217        C  0.55529035  0.26700425  0.15297991    -0.55200
C218        C  0.53607363  0.24199655  0.13308242     0.08700
C219        C  0.59932433  0.20622727  0.15769241    -0.54800
C220        C  0.58158533  0.18056087  0.13741923     0.09300
H221        H  0.63084144  0.29281454  0.11969946     0.13800
H222        H  0.54757789  0.19151508  0.09780018    -0.00400
H223        H  0.54343267  0.29098458  0.16786879     0.14100
H224        H  0.61463605  0.19252534  0.17549972     0.13900
N225        N  0.66031213  0.29619661  0.20895730    -0.28100
N226        N  0.63005094  0.29205189  0.22397343    -0.35900
C227        C  0.60223670  0.28367210  0.20616844     0.00300
C228        C  0.61513718  0.28255434  0.17827212     0.06300
C229        C  0.65240287  0.28993682  0.18101018    -0.06800
H230        H  0.57534312  0.27369349  0.21330084     0.07000
H231        H  0.67266184  0.28633772  0.16432359     0.08200
Cu232      Cu  0.62841738  0.28613412  0.26795203     0.44200
Cu233      Cu  0.71094268  0.30069951  0.22867757     0.42000
Cu234      Cu  0.71100554  0.27272250  0.30646183     0.43900
N235        N  0.63015213  0.27781344  0.31178524    -0.35500
N236        N  0.66056927  0.27338298  0.32654202    -0.29700
C237        C  0.65272773  0.27657589  0.35469419    -0.05800
C238        C  0.61534193  0.28224960  0.35783211     0.06400
C239        C  0.60228077  0.28346641  0.32995515     0.00200
H240        H  0.67300974  0.27928536  0.37143130     0.07900
H241        H  0.57510434  0.29295796  0.32326729     0.06900
N242        N  0.75716540  0.28210217  0.28141054    -0.36900
N243        N  0.75717653  0.29504913  0.25418038    -0.29100
C244        C  0.79182814  0.30087416  0.24552229    -0.04300
C245        C  0.81446473  0.29032502  0.26818746     0.04300
C246        C  0.79177726  0.27833427  0.29050221     0.02400
H247        H  0.79992015  0.31071734  0.22408673     0.07500
H248        H  0.79977517  0.26838082  0.31193697     0.06300
O249        O  0.10435752  0.30847509  0.22123502    -0.73700
O250        O  0.10156775  0.34557728  0.30431695    -0.74700
O251        O  0.15926302  0.32751627  0.26289181    -0.63300
O252        O  0.05141559  0.32663641  0.26189583    -0.71700
O253        O  0.05151121  0.25364069  0.27561369    -0.71300
O254        O  0.15934461  0.25363204  0.27412113    -0.62500
O255        O  0.10468812  0.27200466  0.31592155    -0.75000
O256        O  0.10169912  0.23503327  0.23331448    -0.73800
Cu257      Cu  0.10463522  0.32970085  0.26213954     1.04600
Cu258      Cu  0.10480286  0.25101462  0.27518708     1.04300
C259        C  0.10000680  0.26645263  0.21437995     0.92500
C260        C  0.10012911  0.31381616  0.32309239     0.91600
C261        C  0.17639691  0.29057469  0.26840234     0.83800
C262        C  0.03474365  0.29009722  0.26876355     0.90000
O263        O  0.92889579  0.23495327  0.23327468    -0.73700
O264        O  0.92592681  0.27190521  0.31587552    -0.74700
O265        O  0.87126071  0.25350124  0.27407714    -0.63300
O266        O  0.97909637  0.25360039  0.27558066    -0.71700
O267        O  0.97923969  0.32659604  0.26186251    -0.71300
O268        O  0.87139600  0.32738830  0.26285489    -0.62500
O269        O  0.92910639  0.34548393  0.30428326    -0.75000
O270        O  0.92628535  0.30839203  0.22119177    -0.73800
Cu271      Cu  0.92580168  0.25092718  0.27514513     1.04600
Cu272      Cu  0.92602353  0.32961520  0.26210193     1.04300
C273        C  0.93060528  0.26637052  0.21433830     0.92500
C274        C  0.93052369  0.31371403  0.32305283     0.91600
C275        C  0.85423537  0.29043502  0.26835906     0.83800
C276        C  0.99588776  0.29007517  0.26874502     0.90000
C277        C  0.93457723  0.30970051  0.40427256     0.85700
C278        C  0.92092799  0.29955776  0.37428358    -0.54500
C279        C  0.93824253  0.32389812  0.35342664     0.08600
C280        C  0.96880417  0.35655287  0.36491257     0.19600
C281        C  0.97537090  0.30042359  0.40303521    -0.55200
C282        C  0.99457258  0.32540575  0.38312266     0.08700
C283        C  0.93131389  0.36117869  0.40773174    -0.54800
C284        C  0.94903702  0.38682177  0.38744529     0.09300
H285        H  0.89982045  0.27450781  0.36977313     0.13800
H286        H  0.98303805  0.37582128  0.34782520    -0.00400
H287        H  0.98724077  0.27648250  0.41793557     0.14100
H288        H  0.91600506  0.37490164  0.42553828     0.13900
C289        C  0.93452012  0.26324775  0.13296665     0.85700
C290        C  0.92117886  0.27694779  0.16254807    -0.54500
C291        C  0.93867865  0.25489460  0.18427316     0.08600
C292        C  0.96902992  0.22104312  0.17413373     0.19600
C293        C  0.97533476  0.27259874  0.13353371    -0.55200
C294        C  0.99460158  0.25000785  0.15446318     0.08700
C295        C  0.93116430  0.21144896  0.13192343    -0.54800
C296        C  0.94905060  0.18825029  0.15325211     0.09300
H297        H  0.89991757  0.30213953  0.16610435     0.13800
H298        H  0.98335874  0.20376216  0.19197579    -0.00400
H299        H  0.98718527  0.29475573  0.11756115     0.14100
H300        H  0.91558623  0.19566903  0.11494062     0.13900
N301        N  0.87037150  0.27116926  0.45901882    -0.28100
N302        N  0.90062188  0.27539844  0.47404020    -0.35900
C303        C  0.92843121  0.28381720  0.45623954     0.00300
C304        C  0.91553714  0.28487196  0.42834077     0.06300
C305        C  0.87828075  0.27741372  0.43107240    -0.06800
H306        H  0.95531233  0.29385015  0.46337435     0.07000
H307        H  0.85802239  0.28093951  0.41438021     0.08200
Cu308      Cu  0.90222200  0.28133721  0.01801871     0.44200
Cu309      Cu  0.81974284  0.26655909  0.47873188     0.42000
Cu310      Cu  0.81960166  0.29461195  0.05651594     0.43900
N311        N  0.90045734  0.28959875  0.06185585    -0.35500
N312        N  0.87003280  0.29397664  0.07661097    -0.29700
C313        C  0.87786901  0.29073287  0.10476156    -0.05800
C314        C  0.91525754  0.28507961  0.10789898     0.06400
C315        C  0.92832578  0.28392790  0.08002358     0.00200
H316        H  0.85758459  0.28797405  0.12149296     0.07900
H317        H  0.95550720  0.27446713  0.07332865     0.06900
N318        N  0.77346535  0.28515091  0.03144118    -0.36900
N319        N  0.77348463  0.27217060  0.50421325    -0.29100
C320        C  0.73884318  0.26630700  0.49553655    -0.04300
C321        C  0.71617979  0.27686324  0.51818728     0.04300
C322        C  0.73884278  0.28890187  0.04051209     0.02400
H323        H  0.73077552  0.25644847  0.47409509     0.07500
H324        H  0.73082031  0.29888975  0.06193775     0.06300
C325        C  0.93451859  0.51329204  0.40899315     0.85700
C326        C  0.93118067  0.46149270  0.41004952    -0.54500
C327        C  0.94907321  0.43827832  0.38872553     0.08600
C328        C  0.96904246  0.47105501  0.36783643     0.19600
C329        C  0.97532800  0.52266899  0.40842483    -0.55200
C330        C  0.99460492  0.50005607  0.38750527     0.08700
C331        C  0.92117061  0.02694495  0.37941013    -0.54800
C332        C  0.93867603  0.00487530  0.35768864     0.09300
H333        H  0.91560859  0.44572268  0.42703497     0.13800
H334        H  0.98337869  0.45376170  0.34999789    -0.00400
H335        H  0.98716876  0.54485852  0.42439091     0.14100
H336        H  0.89990049  0.05212104  0.37585005     0.13900
C337        C  0.93455079  0.05966942  0.13769226     0.85700
C338        C  0.93128308  0.11114422  0.13424880    -0.54500
C339        C  0.94900583  0.13679262  0.15453833     0.08600
C340        C  0.96877364  0.10652544  0.17706628     0.19600
C341        C  0.97534532  0.05039690  0.13892647    -0.55200
C342        C  0.99454470  0.07537524  0.15884999     0.08700
C343        C  0.92090147  0.04952282  0.16767814    -0.54800
C344        C  0.93821558  0.07386218  0.18854349     0.09300
H345        H  0.91597428  0.12486072  0.11644461     0.13800
H346        H  0.98300559  0.12579905  0.19415846    -0.00400
H347        H  0.98721703  0.02645995  0.12401734     0.14100
H348        H  0.89979737  0.02446793  0.17218013     0.13900
N349        N  0.87034008  0.02125947  0.08291629    -0.28100
N350        N  0.90059608  0.02546937  0.06790187    -0.35900
C351        C  0.92840931  0.03382125  0.08571341     0.00300
C352        C  0.91551094  0.03485296  0.11361250     0.06300
C353        C  0.87824884  0.02745025  0.11086886    -0.06800
H354        H  0.95529817  0.04383623  0.07858987     0.07000
H355        H  0.85798947  0.03098712  0.12756046     0.08200
Cu356      Cu  0.90220192  0.03146162  0.02392797     0.44200
Cu357      Cu  0.81971528  0.01674062  0.06319359     0.42000
Cu358      Cu  0.81957701  0.04463742  0.98540138     0.43900
N359        N  0.90043803  0.03969619  0.48009165    -0.35500
N360        N  0.87001521  0.54403187  0.46533050    -0.29700
C361        C  0.87785859  0.54077013  0.43718242    -0.05800
C362        C  0.91524899  0.53514606  0.43405212     0.06400
C363        C  0.92831343  0.03403307  0.46192855     0.00200
H364        H  0.85757917  0.53797339  0.42044887     0.07900
H365        H  0.95549764  0.02459715  0.46862749     0.06900
N366        N  0.77344248  0.03525210  0.01047637    -0.36900
N367        N  0.77346065  0.02234814  0.03771434    -0.29100
C368        C  0.73881954  0.01652960  0.04639843    -0.04300
C369        C  0.71615917  0.02703490  0.02374096     0.04300
C370        C  0.73882118  0.53899399  0.00140344     0.02400
H371        H  0.73075111  0.00672208  0.06784591     0.07500
H372        H  0.73079973  0.54891570  0.47996845     0.06300
O373        O  0.10170193  0.98508353  0.30867811    -0.73700
O374        O  0.10466091  0.02200415  0.22607366    -0.74700
O375        O  0.15933332  0.00367100  0.26786222    -0.63300
O376        O  0.05150201  0.00365023  0.26638518    -0.71700
O377        O  0.05138874  0.07665589  0.28010390    -0.71300
O378        O  0.15924577  0.07755743  0.27910603    -0.62500
O379        O  0.10153728  0.09558400  0.23768099    -0.75000
O380        O  0.10434110  0.05853224  0.32076508    -0.73800
Cu381      Cu  0.10479163  0.00104025  0.26680559     1.04600
Cu382      Cu  0.10461200  0.07973337  0.27985969     1.04300
C383        C  0.10000515  0.01651098  0.32761671     0.92500
C384        C  0.10009706  0.06380973  0.21890437     0.91600
C385        C  0.17638400  0.04061608  0.27358844     0.83800
C386        C  0.03472557  0.04010643  0.27323244     0.90000
O387        O  0.97909675  0.00357969  0.26639083    -0.73700
O388        O  0.87126439  0.00339504  0.26786118    -0.74700
O389        O  0.92593917  0.02184678  0.22608000    -0.63300
O390        O  0.92889536  0.98489939  0.30868055    -0.71700
O391        O  0.92625099  0.05834002  0.32077500    -0.71300
O392        O  0.92906534  0.09542844  0.23769504    -0.62500
O393        O  0.87135783  0.07728146  0.27910774    -0.75000
O394        O  0.97920360  0.07658106  0.28011910    -0.73800
Cu395      Cu  0.92580668  0.00086639  0.26680889     1.04600
Cu396      Cu  0.92598428  0.07955654  0.27987090     1.04300
C397        C  0.99586978  0.04006700  0.27323839     0.92500
C398        C  0.85421846  0.04031508  0.27358577     0.91600
C399        C  0.93050683  0.06366190  0.21891523     0.83800
C400        C  0.93059363  0.01632498  0.32762241     0.90000
C401        C  0.09607996  0.30990428  0.40431949     0.85700
C402        C  0.09934722  0.36138950  0.40775010    -0.54500
C403        C  0.08162452  0.38697872  0.38745356     0.08600
C404        C  0.06186236  0.35664685  0.36492989     0.19600
C405        C  0.05528477  0.30056538  0.40308423    -0.55200
C406        C  0.03609027  0.32547074  0.38314476     0.08700
C407        C  0.10973280  0.29973747  0.37433527    -0.54800
C408        C  0.09242151  0.32402352  0.35346366     0.09300
H409        H  0.11465312  0.37515818  0.42555191     0.13800
H410        H  0.04763317  0.37587218  0.34783133    -0.00400
H411        H  0.04340985  0.27664094  0.41800518     0.14100
H412        H  0.13083609  0.27471120  0.36983895     0.13900
C413        C  0.09610703  0.26341080  0.13301261     0.85700
C414        C  0.09944878  0.21161575  0.13194167    -0.54500
C415        C  0.08155466  0.18836926  0.15325921     0.08600
C416        C  0.06157274  0.22110952  0.17414979     0.19600
C417        C  0.05529603  0.27271451  0.13357571    -0.55200
C418        C  0.03601421  0.25005737  0.15448129     0.08700
C419        C  0.10944203  0.27708641  0.16260156    -0.54800
C420        C  0.09193064  0.25498687  0.18431201     0.09300
H421        H  0.11502787  0.19587445  0.11495463     0.13800
H422        H  0.04723268  0.20379084  0.19198073    -0.00400
H423        H  0.04345818  0.29489319  0.11762014     0.14100
H424        H  0.13071010  0.30229956  0.16617356     0.13900
N425        N  0.16026145  0.27153519  0.45910379    -0.28100
N426        N  0.13001821  0.27581688  0.47412214    -0.35900
C427        C  0.10221568  0.28418301  0.45631422     0.00300
C428        C  0.11510634  0.28515084  0.42841274     0.06300
C429        C  0.15235549  0.27769685  0.43114989    -0.06800
H430        H  0.07534464  0.29423190  0.46343905     0.07000
H431        H  0.17261486  0.28115895  0.41445069     0.08200
Cu432      Cu  0.12843163  0.28183478  0.01809538     0.44200
Cu433      Cu  0.21088015  0.26691900  0.47883003     0.42000
Cu434      Cu  0.21108009  0.29488433  0.05662804     0.43900
N435        N  0.13020905  0.28997771  0.06193897    -0.35500
N436        N  0.16063964  0.29426542  0.07670287    -0.29700
C437        C  0.15279399  0.29093215  0.10484695    -0.05800
C438        C  0.11539620  0.28531041  0.10797284     0.06400
C439        C  0.10232800  0.28427218  0.08009609     0.00200
H440        H  0.17307111  0.28808399  0.12157580     0.07900
H441        H  0.07513244  0.27485948  0.07338525     0.06900
N442        N  0.25719600  0.28539673  0.03155048    -0.36900
N443        N  0.25715048  0.27245285  0.50431571    -0.29100
C444        C  0.29178067  0.26655521  0.49563596    -0.04300
C445        C  0.31446473  0.27704954  0.51829223     0.04300
C446        C  0.29182567  0.28908866  0.04062352     0.02400
H447        H  0.29982927  0.25671352  0.47418943     0.07500
H448        H  0.29986761  0.29903746  0.06205430     0.06300
C449        C  0.09610547  0.51349329  0.40898752     0.85700
C450        C  0.10943864  0.02716837  0.37940074    -0.54500
C451        C  0.09193616  0.00505241  0.35768439     0.08600
C452        C  0.06158884  0.47116199  0.36783843     0.19600
C453        C  0.05528959  0.52277272  0.40842272    -0.55200
C454        C  0.03601849  0.50010634  0.38750626     0.08700
C455        C  0.09946358  0.46170092  0.41004722    -0.54800
C456        C  0.08157563  0.43843776  0.38872690     0.09300
H457        H  0.13069784  0.05239247  0.37583472     0.13800
H458        H  0.04725677  0.45382878  0.35000369    -0.00400
H459        H  0.04344177  0.54494262  0.42438522     0.14100
H460        H  0.11504607  0.44597362  0.42703257     0.13900
C461        C  0.09605794  0.05982022  0.13767826     0.85700
C462        C  0.10970403  0.04968309  0.16766446    -0.54500
C463        C  0.09239011  0.07399097  0.18853207     0.08600
C464        C  0.06183412  0.10660560  0.17705912     0.19600
C465        C  0.05526096  0.05048664  0.13890962    -0.55200
C466        C  0.03606310  0.07541825  0.15884204     0.08700
C467        C  0.09932881  0.11130273  0.13424342    -0.54800
C468        C  0.08160183  0.13691261  0.15453509     0.09300
H469        H  0.13080573  0.02466012  0.17216533     0.13800
H470        H  0.04760242  0.12584817  0.19415444    -0.00400
H471        H  0.04338757  0.02654710  0.12399021     0.14100
H472        H  0.11464002  0.12505485  0.11644335     0.13900
N473        N  0.16024426  0.02136015  0.08290534    -0.28100
N474        N  0.13001022  0.02568343  0.06788087    -0.35900
C475        C  0.10220685  0.03408425  0.08568336     0.00300
C476        C  0.11508481  0.03503974  0.11358789     0.06300
C477        C  0.15232992  0.02753460  0.11085945    -0.06800
H478        H  0.07534855  0.04417317  0.07855409     0.07000
H479        H  0.17258458  0.03097222  0.12756546     0.08200
Cu480      Cu  0.12843446  0.03175494  0.02391273     0.44200
Cu481      Cu  0.21086931  0.01668448  0.06318452     0.42000
Cu482      Cu  0.21106283  0.54487312  0.98541451     0.43900
N483        N  0.13019721  0.04000612  0.98007914    -0.35500
N484        N  0.16062826  0.54432225  0.46532142    -0.29700
C485        C  0.15278410  0.54102960  0.43717326    -0.05800
C486        C  0.11538568  0.53540219  0.43403876     0.06400
C487        C  0.10231740  0.53432485  0.46191550     0.00200
H488        H  0.17306341  0.53819628  0.42044428     0.07900
H489        H  0.07512546  0.02488473  0.46861732     0.06900
N490        N  0.25717852  0.53525631  0.01047608    -0.36900
N491        N  0.25713637  0.02222510  0.03769105    -0.29100
C492        C  0.29176868  0.01628441  0.04635542    -0.04300
C493        C  0.31445035  0.52684338  0.02371148     0.04300
C494        C  0.29180697  0.53896434  0.00140398     0.02400
H495        H  0.29982123  0.00638964  0.06778832     0.07500
H496        H  0.29984590  0.54899535  0.97999052     0.06300
O497        O  0.60470518  0.29538214  0.56582431    -0.73700
O498        O  0.60178292  0.33232270  0.98323524    -0.74700
O499        O  0.55156039  0.31372021  0.52552348    -0.63300
O500        O  0.65939490  0.31372732  0.52405049    -0.71700
O501        O  0.65923049  0.23984366  0.01279922    -0.71300
O502        O  0.55137997  0.24071673  0.01180031    -0.62500
O503        O  0.60434153  0.25888116  0.97113090    -0.75000
O504        O  0.60150458  0.22180019  0.55422284    -0.73800
Cu505      Cu  0.60485536  0.31634900  0.52510109     1.04600
Cu506      Cu  0.60459646  0.23765889  0.01204041     1.04300
C507        C  0.60009906  0.25357923  0.57299728     0.92500
C508        C  0.60004499  0.30090771  0.96428984     0.91600
C509        C  0.53475038  0.27725457  0.01868610     0.83800
C510        C  0.67640676  0.27678120  0.51832817     0.90000
O511        O  0.42623561  0.25892520  0.97121776    -0.73700
O512        O  0.42905985  0.22184674  0.55429187    -0.74700
O513        O  0.37134423  0.23995837  0.01289945    -0.63300
O514        O  0.47919781  0.24073317  0.01185156    -0.71700
O515        O  0.47915102  0.31373598  0.52557675    -0.71300
O516        O  0.37131817  0.31384315  0.52414885    -0.62500
O517        O  0.42600107  0.29542667  0.56591065    -0.75000
O518        O  0.42894055  0.33236948  0.98330630    -0.73800
Cu519      Cu  0.42597341  0.23771650  0.01211945     1.04600
Cu520      Cu  0.42586264  0.31640713  0.52518060     1.04300
C521        C  0.43060719  0.30094039  0.96436650     0.92500
C522        C  0.43052957  0.25361131  0.57307269     0.91600
C523        C  0.35423728  0.27691730  0.01843041     0.83800
C524        C  0.49589429  0.27726260  0.01871501     0.90000
C525        C  0.43451334  0.30391970  0.88299638     0.85700
C526        C  0.43119021  0.35571445  0.88192394    -0.54500
C527        C  0.44908375  0.37896733  0.90324369     0.08600
C528        C  0.46905642  0.34623454  0.92413508     0.19600
C529        C  0.47531900  0.29458927  0.88356382    -0.55200
C530        C  0.49460764  0.31725718  0.90446691     0.08700
C531        C  0.42116783  0.29027574  0.91258494    -0.54800
C532        C  0.43868508  0.31238257  0.93429724     0.09300
H533        H  0.41561763  0.37145156  0.86493626     0.13800
H534        H  0.48340175  0.36355976  0.94196606    -0.00400
H535        H  0.48714864  0.27238208  0.86761352     0.14100
H536        H  0.39989011  0.26507752  0.91615481     0.13900
C537        C  0.43457392  0.25755967  0.65429747     0.85700
C538        C  0.43128885  0.20608039  0.65772741    -0.54500
C539        C  0.44900609  0.18046488  0.63743398     0.08600
C540        C  0.46877380  0.21076864  0.61490637     0.19600
C541        C  0.47537377  0.26687322  0.65306245    -0.55200
C542        C  0.49455693  0.24194645  0.63311792     0.08700
C543        C  0.42092429  0.26771195  0.62431424    -0.54800
C544        C  0.43822706  0.24340310  0.60344181     0.09300
H545        H  0.41597772  0.19233621  0.67552949     0.13800
H546        H  0.48299420  0.19152113  0.59780726    -0.00400
H547        H  0.48725972  0.29079317  0.66798829     0.14100
H548        H  0.39983187  0.29274971  0.61981857     0.13900
N549        N  0.37038872  0.29597189  0.70907740    -0.28100
N550        N  0.40062362  0.29165388  0.72410180    -0.35900
C551        C  0.42842987  0.28327670  0.70629703     0.00300
C552        C  0.41555259  0.28233553  0.67839170     0.06300
C553        C  0.37830582  0.28982196  0.68112230    -0.06800
H554        H  0.45529100  0.27319524  0.71342385     0.07000
H555        H  0.35805222  0.28638462  0.66441560     0.08200
Cu556      Cu  0.40220389  0.28559271  0.76807169     0.44200
Cu557      Cu  0.31975489  0.30061467  0.72878597     0.42000
Cu558      Cu  0.31954752  0.27273471  0.80658392     0.43900
N559        N  0.40041644  0.27741960  0.81191133    -0.35500
N560        N  0.36997502  0.27320731  0.82666727    -0.29700
C561        C  0.37781437  0.27650335  0.85481413    -0.05800
C562        C  0.41521914  0.28202472  0.85795243     0.06400
C563        C  0.42830037  0.28303967  0.83007793     0.00200
H564        H  0.35753485  0.27940924  0.87153809     0.07900
H565        H  0.45551128  0.29239538  0.82337753     0.06900
N566        N  0.27343927  0.28220991  0.78150909    -0.36900
N567        N  0.27347840  0.29511296  0.75427073    -0.29100
C568        C  0.23884331  0.30096908  0.74559156    -0.04300
C569        C  0.21616782  0.29048739  0.76825360     0.04300
C570        C  0.23881433  0.27850338  0.79058592     0.02400
H571        H  0.23078629  0.31076603  0.72414187     0.07500
H572        H  0.23078036  0.26857021  0.81201844     0.06300
C573        C  0.43456546  0.50751080  0.88769048     0.85700
C574        C  0.42091481  0.51764454  0.91767806    -0.54500
C575        C  0.43822812  0.49333989  0.93853924     0.08600
C576        C  0.46878822  0.46073147  0.92706107     0.19600
C577        C  0.47536163  0.51685023  0.88892799    -0.55200
C578        C  0.49455751  0.49191809  0.90885454     0.08700
C579        C  0.43130174  0.45602707  0.88423991    -0.54800
C580        C  0.44902953  0.43042215  0.90452735     0.09300
H581        H  0.39981121  0.54266580  0.92218510     0.13800
H582        H  0.48301857  0.44149335  0.94415302    -0.00400
H583        H  0.48723669  0.54078765  0.87401511     0.14100
H584        H  0.41599489  0.44227159  0.86643444     0.13900
C585        C  0.43449617  0.05398287  0.65899387     0.85700
C586        C  0.42115133  0.04028490  0.62940965    -0.54500
C587        C  0.43866136  0.06236570  0.60768932     0.08600
C588        C  0.46902293  0.09624780  0.61783632     0.19600
C589        C  0.47530632  0.04467325  0.65842512    -0.55200
C590        C  0.49458345  0.06730663  0.63750574     0.08700
C591        C  0.43116077  0.10577777  0.66004780    -0.54800
C592        C  0.44904994  0.12900712  0.63872046     0.09300
H593        H  0.39988090  0.01507140  0.62584828     0.13800
H594        H  0.48335951  0.11355401  0.59999849    -0.00400
H595        H  0.48714665  0.02250846  0.67438714     0.14100
H596        H  0.41558832  0.12153085  0.67703394     0.13900
N597        N  0.37037100  0.04600027  0.83294034    -0.28100
N598        N  0.40060713  0.04171053  0.81791241    -0.35900
C599        C  0.42841167  0.03329095  0.83570847     0.00300
C600        C  0.41553304  0.53229488  0.86361167     0.06300
C601        C  0.37828661  0.53979070  0.86088907    -0.06800
H602        H  0.45527430  0.52322811  0.82857156     0.07000
H603        H  0.35803276  0.53632746  0.87759254     0.08200
Cu604      Cu  0.40219434  0.03572996  0.77393652     0.44200
Cu605      Cu  0.31973694  0.05067983  0.81323267     0.42000
Cu606      Cu  0.31955535  0.02264234  0.73544222     0.43900
N607        N  0.40041774  0.02753494  0.73009500    -0.35500
N608        N  0.36998092  0.02323172  0.71534189    -0.29700
C609        C  0.37781518  0.02651608  0.68719304    -0.05800
C610        C  0.41521373  0.03211760  0.68405173     0.06400
C611        C  0.42829299  0.03319833  0.71192621     0.00200
H612        H  0.35753113  0.02934311  0.67046801     0.07900
H613        H  0.45549376  0.04261107  0.71862389     0.06900
N614        N  0.27343518  0.03216593  0.76050998    -0.36900
N615        N  0.27346715  0.04514989  0.78773745    -0.29100
C616        C  0.23882996  0.05105789  0.79640159    -0.04300
C617        C  0.21615806  0.04052524  0.77374268     0.04300
C618        C  0.23881130  0.02845337  0.75142824     0.02400
H619        H  0.23076792  0.06091975  0.81784132     0.07500
H620        H  0.23078236  0.01846145  0.73000236     0.06300
O621        O  0.60152291  0.47185860  0.48770112    -0.73700
O622        O  0.60434779  0.00897160  0.57078790    -0.74700
O623        O  0.55139237  0.49074784  0.53012814    -0.63300
O624        O  0.65923493  0.48997351  0.52911554    -0.71700
O625        O  0.65935963  0.06385738  0.51788435    -0.71300
O626        O  0.55152560  0.06374466  0.51641205    -0.62500
O627        O  0.60173600  0.08240885  0.55870128    -0.75000
O628        O  0.60468484  0.54543664  0.97610397    -0.73800
Cu629      Cu  0.60460833  0.48773822  0.52987988     1.04600
Cu630      Cu  0.60481959  0.06642490  0.51683209     1.04300
C631        C  0.60010191  0.50362430  0.96892931     0.92500
C632        C  0.60002097  0.05099342  0.57763852     0.91600
C633        C  0.53473935  0.52726890  0.52325393     0.83800
C634        C  0.67638975  0.02692531  0.52359696     0.90000
O635        O  0.42595503  0.54533649  0.97608487    -0.74500
O636        O  0.42890312  0.08229936  0.55868549    -0.74700
O637        O  0.47911295  0.06370030  0.51639922    -0.63300
O638        O  0.37127923  0.06369598  0.51786105    -0.71700
O639        O  0.37135913  0.48981298  0.52909173    -0.71300
O640        O  0.47921376  0.49070566  0.53011906    -0.62500
O641        O  0.42624795  0.00885932  0.57076984    -0.75000
O642        O  0.42908245  0.47176174  0.48768332    -0.73800
Cu643      Cu  0.42582108  0.06631960  0.51681427     1.04600
Cu644      Cu  0.42599191  0.48763377  0.52986200     1.04300
C645        C  0.43052125  0.50352867  0.96891142     0.92500
C646        C  0.43058976  0.05088446  0.57762289     0.91600
C647        C  0.49588333  0.52724531  0.52324787     0.83800
C648        C  0.35422456  0.02675238  0.52357262     0.90000
C649        C  0.59606806  0.50763682  0.88771032     0.85700
C650        C  0.59932859  0.45616181  0.88424766    -0.54500
C651        C  0.58160432  0.43051289  0.90452964     0.08600
C652        C  0.56183684  0.46078004  0.92706551     0.19600
C653        C  0.55527629  0.51692062  0.88894724    -0.55200
C654        C  0.53607348  0.49194366  0.90886051     0.08700
C655        C  0.60971730  0.51777207  0.91770039    -0.54800
C656        C  0.59239822  0.49343080  0.93855518     0.09300
H657        H  0.61464137  0.44244735  0.86644097     0.13800
H658        H  0.54760133  0.44150606  0.94414987    -0.00400
H659        H  0.54340821  0.54086859  0.87405035     0.14100
H660        H  0.63082465  0.54282146  0.92221287     0.13900
C661        C  0.59607372  0.05411860  0.65900753     0.85700
C662        C  0.59941297  0.10591909  0.66005421    -0.54500
C663        C  0.58153203  0.12910716  0.63871968     0.08600
C664        C  0.56156540  0.09630628  0.61783586     0.19600
C665        C  0.55526455  0.04474453  0.65843370    -0.55200
C666        C  0.53599572  0.06733555  0.63750647     0.08700
C667        C  0.60942968  0.04042584  0.62942934    -0.54800
C668        C  0.59193098  0.06246936  0.60770130     0.09300
H669        H  0.61497787  0.12170945  0.67704107     0.13800
H670        H  0.54723605  0.11357783  0.59999071    -0.00400
H671        H  0.54341814  0.02257933  0.67440369     0.14100
H672        H  0.63070021  0.01524479  0.62587707     0.13900
N673        N  0.66028405  0.04602858  0.83294786    -0.28100
N674        N  0.63001804  0.04188617  0.81793708    -0.35900
C675        C  0.60220520  0.53354674  0.83574895     0.00300
C676        C  0.61511452  0.53245860  0.86364401     0.06300
C677        C  0.65238143  0.53981097  0.86089689    -0.06800
H678        H  0.57530457  0.52358014  0.82862339     0.07000
H679        H  0.67264437  0.53621946  0.87758010     0.08200
Cu680      Cu  0.62838570  0.03596776  0.77395655     0.44200
Cu681      Cu  0.71090835  0.05048656  0.81322398     0.42000
Cu682      Cu  0.71100661  0.02270675  0.73541650     0.43900
N683        N  0.63014499  0.02776657  0.73011344    -0.35500
N684        N  0.66056558  0.02339851  0.71535137    -0.29700
C685        C  0.65272419  0.02665022  0.68720375    -0.05800
C686        C  0.61533681  0.03229657  0.68407368     0.06400
C687        C  0.60227206  0.03344029  0.71195009     0.00200
H688        H  0.67300478  0.02940746  0.67046933     0.07900
H689        H  0.57508853  0.04288564  0.71864866     0.06900
N690        N  0.75715803  0.03199448  0.76048905    -0.36900
N691        N  0.75715435  0.04486287  0.78773722    -0.29100
C692        C  0.79179990  0.05065898  0.79641701    -0.04300
C693        C  0.81444883  0.04017488  0.77374546     0.04300
C694        C  0.79177502  0.02825094  0.75140409     0.02400
H695        H  0.79987879  0.06045162  0.81786772     0.07500
H696        H  0.79978523  0.01836836  0.72995643     0.06300
C697        C  0.59609110  0.30406296  0.88291764     0.85700
C698        C  0.60944759  0.29035142  0.91248955    -0.54500
C699        C  0.59195986  0.31239736  0.93423004     0.08600
C700        C  0.56160348  0.34625548  0.92411331     0.19600
C701        C  0.55527702  0.29471389  0.88349246    -0.55200
C702        C  0.53602081  0.31729714  0.90443927     0.08700
C703        C  0.59944646  0.35586043  0.88189474    -0.54800
C704        C  0.58156931  0.37905446  0.90323564     0.09300
H705        H  0.63070884  0.26515637  0.91602851     0.13800
H706        H  0.54728382  0.36353272  0.94196674    -0.00400
H707        H  0.54341945  0.27257344  0.86750755     0.14100
H708        H  0.61501173  0.37164387  0.86491090     0.13900
C709        C  0.59608060  0.25770077  0.65421510     0.85700
C710        C  0.60972678  0.26778240  0.62422109    -0.54500
C711        C  0.59239523  0.24342109  0.60337452     0.08600
C712        C  0.56182422  0.21080343  0.61487793     0.19600
C713        C  0.55529035  0.26700415  0.65297992    -0.55200
C714        C  0.53607364  0.24199644  0.63308241     0.08700
C715        C  0.59932435  0.20622715  0.65769248    -0.54800
C716        C  0.58158533  0.18056078  0.63741924     0.09300
H717        H  0.63084150  0.29281442  0.61969950     0.13800
H718        H  0.54757790  0.19151507  0.59780013    -0.00400
H719        H  0.54343264  0.29098444  0.66786880     0.14100
H720        H  0.61463592  0.19252525  0.67549975     0.13900
N721        N  0.66031214  0.29619659  0.70895725    -0.28100
N722        N  0.63005094  0.29205200  0.72397338    -0.35900
C723        C  0.60223669  0.28367228  0.70616839     0.00300
C724        C  0.61513717  0.28255443  0.67827208     0.06300
C725        C  0.65240286  0.28993687  0.68101013    -0.06800
H726        H  0.57534310  0.27369369  0.71330080     0.07000
H727        H  0.67266183  0.28633775  0.66432354     0.08200
Cu728      Cu  0.62841738  0.28613429  0.76795199     0.44200
Cu729      Cu  0.71094269  0.30069967  0.72867753     0.42000
Cu730      Cu  0.71100557  0.27272236  0.80646195     0.43900
N731        N  0.63015214  0.27781348  0.81178520    -0.35500
N732        N  0.66056926  0.27338295  0.82654199    -0.29700
C733        C  0.65272772  0.27657594  0.85469415    -0.05800
C734        C  0.61534191  0.28224957  0.85783208     0.06400
C735        C  0.60228076  0.28346632  0.82995511     0.00200
H736        H  0.67300974  0.27928555  0.87143124     0.07900
H737        H  0.57510430  0.29295780  0.82326725     0.06900
N738        N  0.75716536  0.28210226  0.78141057    -0.36900
N739        N  0.75717653  0.29504921  0.75418042    -0.29100
C740        C  0.79182817  0.30087407  0.74552232    -0.04300
C741        C  0.81446471  0.29032495  0.76818749     0.04300
C742        C  0.79177723  0.27833423  0.79050229     0.02400
H743        H  0.79992023  0.31071722  0.72408676     0.07500
H744        H  0.79977503  0.26838080  0.81193695     0.06300
O745        O  0.10435751  0.30847506  0.72123505    -0.73700
O746        O  0.10156775  0.34557729  0.80431696    -0.74700
O747        O  0.15926300  0.32751625  0.76289190    -0.63300
O748        O  0.05141560  0.32663635  0.76189595    -0.71700
O749        O  0.05151120  0.25364063  0.77561383    -0.71300
O750        O  0.15934463  0.25363197  0.77412109    -0.62500
O751        O  0.10468813  0.27200466  0.81592157    -0.75000
O752        O  0.10169909  0.23503323  0.73331453    -0.73800
Cu753      Cu  0.10463522  0.32970079  0.76213959     1.04600
Cu754      Cu  0.10480286  0.25101451  0.77518715     1.04300
C755        C  0.10000677  0.26645259  0.71437998     0.92500
C756        C  0.10012910  0.31381617  0.82309240     0.91600
C757        C  0.17639690  0.29057464  0.76840235     0.83800
C758        C  0.03474365  0.29009716  0.76876366     0.90000
O759        O  0.92889579  0.23495320  0.73327465    -0.73700
O760        O  0.92592681  0.27190519  0.81587551    -0.74700
O761        O  0.87126071  0.25350123  0.77407711    -0.63300
O762        O  0.97909636  0.25360032  0.77558063    -0.71700
O763        O  0.97923970  0.32659597  0.76186251    -0.71300
O764        O  0.87139598  0.32738830  0.76285489    -0.62500
O765        O  0.92910639  0.34548394  0.80428332    -0.75000
O766        O  0.92628534  0.30839197  0.72119176    -0.73800
Cu767      Cu  0.92580167  0.25092712  0.77514510     1.04600
Cu768      Cu  0.92602353  0.32961508  0.76210197     1.04300
C769        C  0.93060528  0.26637045  0.71433828     0.92500
C770        C  0.93052369  0.31371402  0.82305286     0.91600
C771        C  0.85423537  0.29043500  0.76835908     0.83800
C772        C  0.99588776  0.29007510  0.76874502     0.90000
C773        C  0.93457722  0.30970055  0.90427259     0.85700
C774        C  0.92092800  0.29955778  0.87428363    -0.54500
C775        C  0.93824255  0.32389806  0.85342668     0.08600
C776        C  0.96880422  0.35655279  0.86491261     0.19600
C777        C  0.97537091  0.30042350  0.90303531    -0.55200
C778        C  0.99457258  0.32540567  0.88312274     0.08700
C779        C  0.93131390  0.36117872  0.90773173    -0.54800
C780        C  0.94903703  0.38682177  0.88744527     0.09300
H781        H  0.89982034  0.27450789  0.86977319     0.13800
H782        H  0.98303811  0.37582116  0.84782524    -0.00400
H783        H  0.98724067  0.27648252  0.91793562     0.14100
H784        H  0.91600505  0.37490170  0.92553824     0.13900
C785        C  0.93452011  0.26324768  0.63296662     0.85700
C786        C  0.92117884  0.27694767  0.66254804    -0.54500
C787        C  0.93867864  0.25489450  0.68427313     0.08600
C788        C  0.96902992  0.22104306  0.67413371     0.19600
C789        C  0.97533477  0.27259865  0.63353368    -0.55200
C790        C  0.99460157  0.25000780  0.65446317     0.08700
C791        C  0.93116432  0.21144891  0.63192340    -0.54800
C792        C  0.94905061  0.18825023  0.65325209     0.09300
H793        H  0.89991755  0.30213939  0.66610432     0.13800
H794        H  0.98335875  0.20376207  0.69197575    -0.00400
H795        H  0.98718530  0.29475556  0.61756106     0.14100
H796        H  0.91558618  0.19566897  0.61494056     0.13900
N797        N  0.87037151  0.27116924  0.95901880    -0.28100
N798        N  0.90062186  0.27539855  0.97404020    -0.35900
C799        C  0.92843118  0.28381738  0.95623956     0.00300
C800        C  0.91553713  0.28487211  0.92834079     0.06300
C801        C  0.87828074  0.27741377  0.93107238    -0.06800
H802        H  0.95531230  0.29385035  0.96337439     0.07000
H803        H  0.85802241  0.28093954  0.91438020     0.08200
Cu804      Cu  0.90222201  0.28133706  0.51801869     0.44200
Cu805      Cu  0.81974283  0.26655924  0.97873185     0.42000
Cu806      Cu  0.81960162  0.29461177  0.55651606     0.43900
N807        N  0.90045737  0.28959884  0.56185583    -0.35500
N808        N  0.87003281  0.29397661  0.57661097    -0.29700
C809        C  0.87786900  0.29073287  0.60476155    -0.05800
C810        C  0.91525752  0.28507960  0.60789897     0.06400
C811        C  0.92832577  0.28392801  0.58002359     0.00200
H812        H  0.85758456  0.28797406  0.62149293     0.07900
H813        H  0.95550725  0.27446719  0.57332867     0.06900
N814        N  0.77346536  0.28515083  0.53144119    -0.36900
N815        N  0.77348462  0.27217051  0.00421328    -0.29100
C816        C  0.73884316  0.26630693  0.99553659    -0.04300
C817        C  0.71617976  0.27686338  0.01818730     0.04300
C818        C  0.73884279  0.28890173  0.54051207     0.02400
H819        H  0.73077552  0.25644842  0.97409516     0.07500
H820        H  0.73082028  0.29888961  0.56193774     0.06300
C821        C  0.93451860  0.51329207  0.90899317     0.85700
C822        C  0.93118067  0.46149274  0.91004949    -0.54500
C823        C  0.94907321  0.43827832  0.88872552     0.08600
C824        C  0.96904246  0.47105505  0.86783647     0.19600
C825        C  0.97532803  0.52266905  0.90842491    -0.55200
C826        C  0.99460492  0.50005608  0.88750531     0.08700
C827        C  0.92117065  0.02694489  0.87941017    -0.54800
C828        C  0.93867602  0.00487529  0.85768867     0.09300
H829        H  0.91560854  0.44572267  0.92703496     0.13800
H830        H  0.98337871  0.45376177  0.84999788    -0.00400
H831        H  0.98716871  0.54485841  0.92439093     0.14100
H832        H  0.89990043  0.05212102  0.87585009     0.13900
C833        C  0.93455078  0.05966941  0.63769223     0.85700
C834        C  0.93128311  0.11114422  0.63424880    -0.54500
C835        C  0.94900583  0.13679258  0.65453836     0.08600
C836        C  0.96877366  0.10652536  0.67706630     0.19600
C837        C  0.97534532  0.05039682  0.63892644    -0.55200
C838        C  0.99454469  0.07537513  0.65884999     0.08700
C839        C  0.92090144  0.04952284  0.66767810    -0.54800
C840        C  0.93821557  0.07386214  0.68854347     0.09300
H841        H  0.91597437  0.12486075  0.61644460     0.13800
H842        H  0.98300559  0.12579884  0.69415850    -0.00400
H843        H  0.98721700  0.02645995  0.62401730     0.14100
H844        H  0.89979725  0.02446802  0.67218007     0.13900
N845        N  0.87034012  0.02125930  0.58291627    -0.28100
N846        N  0.90059608  0.02546929  0.56790182    -0.35900
C847        C  0.92840929  0.03382130  0.58571336     0.00300
C848        C  0.91551095  0.03485294  0.61361246     0.06300
C849        C  0.87824887  0.02745008  0.61086884    -0.06800
H850        H  0.95529809  0.04383648  0.57858980     0.07000
H851        H  0.85798949  0.03098694  0.62756042     0.08200
Cu852      Cu  0.90220192  0.03146177  0.52392794     0.44200
Cu853      Cu  0.81971525  0.01674078  0.56319373     0.42000
Cu854      Cu  0.81957697  0.04463757  0.48540128     0.43900
N855        N  0.90043800  0.03969637  0.98009168    -0.35500
N856        N  0.87001519  0.54403178  0.96533052    -0.29700
C857        C  0.87785862  0.54077021  0.93718243    -0.05800
C858        C  0.91524902  0.53514609  0.93405215     0.06400
C859        C  0.92831344  0.03403318  0.96192861     0.00200
H860        H  0.85757924  0.53797356  0.92044885     0.07900
H861        H  0.95549761  0.02459733  0.96862762     0.06900
N862        N  0.77344251  0.03525232  0.51047648    -0.36900
N863        N  0.77346064  0.02234828  0.53771444    -0.29100
C864        C  0.73881951  0.01652950  0.54639847    -0.04300
C865        C  0.71615918  0.02703478  0.52374097     0.04300
C866        C  0.73882126  0.53899393  0.50140351     0.02400
H867        H  0.73075103  0.00672191  0.56784591     0.07500
H868        H  0.73079964  0.54891578  0.97996846     0.06300
O869        O  0.10170192  0.98508361  0.80867814    -0.73700
O870        O  0.10466091  0.02200413  0.72607374    -0.74700
O871        O  0.15933331  0.00367094  0.76786220    -0.63300
O872        O  0.05150203  0.00365030  0.76638523    -0.71700
O873        O  0.05138872  0.07665594  0.78010390    -0.71300
O874        O  0.15924578  0.07755729  0.77910612    -0.62500
O875        O  0.10153728  0.09558396  0.73768102    -0.75000
O876        O  0.10434108  0.05853231  0.82076506    -0.73800
Cu877      Cu  0.10479162  0.00104035  0.76680565     1.04600
Cu878      Cu  0.10461200  0.07973330  0.77985970     1.04300
C879        C  0.10000514  0.01651107  0.82761672     0.92500
C880        C  0.10009706  0.06380968  0.71890440     0.91600
C881        C  0.17638401  0.04061599  0.77358843     0.83800
C882        C  0.03472557  0.04010646  0.77323247     0.90000
O883        O  0.97909675  0.00357970  0.76639076    -0.73700
O884        O  0.87126440  0.00339498  0.76786113    -0.74700
O885        O  0.92593914  0.02184681  0.72607997    -0.63300
O886        O  0.92889536  0.98489943  0.80868056    -0.71700
O887        O  0.92625099  0.05834004  0.82077506    -0.71300
O888        O  0.92906535  0.09542848  0.73769500    -0.62500
O889        O  0.87135781  0.07728141  0.77910769    -0.75000
O890        O  0.97920359  0.07658107  0.78011909    -0.73800
Cu891      Cu  0.92580668  0.00086647  0.76680886     1.04600
Cu892      Cu  0.92598427  0.07955660  0.77987090     1.04300
C893        C  0.99586977  0.04006699  0.77323839     0.92500
C894        C  0.85421846  0.04031501  0.77358571     0.91600
C895        C  0.93050681  0.06366192  0.71891520     0.83800
C896        C  0.93059362  0.01632498  0.82762244     0.90000
C897        C  0.09607998  0.30990422  0.90431952     0.85700
C898        C  0.09934723  0.36138944  0.90775012    -0.54500
C899        C  0.08162449  0.38697866  0.88745360     0.08600
C900        C  0.06186231  0.35664675  0.86492995     0.19600
C901        C  0.05528476  0.30056525  0.90308435    -0.55200
C902        C  0.03609027  0.32547062  0.88314484     0.08700
C903        C  0.10973279  0.29973748  0.87433529    -0.54800
C904        C  0.09242148  0.32402349  0.85346368     0.09300
H905        H  0.11465320  0.37515819  0.92555192     0.13800
H906        H  0.04763309  0.37587201  0.84783138    -0.00400
H907        H  0.04340993  0.27664096  0.91800525     0.14100
H908        H  0.13083619  0.27471123  0.86983893     0.13900
C909        C  0.09610704  0.26341076  0.63301262     0.85700
C910        C  0.09944877  0.21161576  0.63194166    -0.54500
C911        C  0.08155466  0.18836924  0.65325917     0.08600
C912        C  0.06157273  0.22110942  0.67414979     0.19600
C913        C  0.05529605  0.27271446  0.63357576    -0.55200
C914        C  0.03601421  0.25005728  0.65448129     0.08700
C915        C  0.10944206  0.27708630  0.66260159    -0.54800
C916        C  0.09193062  0.25498680  0.68431204     0.09300
H917        H  0.11502788  0.19587447  0.61495456     0.13800
H918        H  0.04723269  0.20379068  0.69198069    -0.00400
H919        H  0.04345818  0.29489334  0.61762021     0.14100
H920        H  0.13071014  0.30229944  0.66617360     0.13900
N921        N  0.16026144  0.27153507  0.95910381    -0.28100
N922        N  0.13001818  0.27581672  0.97412217    -0.35900
C923        C  0.10221570  0.28418287  0.95631424     0.00300
C924        C  0.11510635  0.28515080  0.92841276     0.06300
C925        C  0.15235549  0.27769688  0.93114994    -0.06800
H926        H  0.07534461  0.29423186  0.96343908     0.07000
H927        H  0.17261491  0.28115908  0.91445071     0.08200
Cu928      Cu  0.12843162  0.28183463  0.51809535     0.44200
Cu929      Cu  0.21088017  0.26691885  0.97883000     0.42000
Cu930      Cu  0.21108012  0.29488417  0.55662817     0.43900
N931        N  0.13020904  0.28997753  0.56193894    -0.35500
N932        N  0.16063962  0.29426525  0.57670285    -0.29700
C933        C  0.15279397  0.29093202  0.60484692    -0.05800
C934        C  0.11539619  0.28531030  0.60797282     0.06400
C935        C  0.10232798  0.28427201  0.58009605     0.00200
H936        H  0.17307109  0.28808395  0.62157578     0.07900
H937        H  0.07513244  0.27485933  0.57338521     0.06900
N938        N  0.25719598  0.28539675  0.53155048    -0.36900
N939        N  0.25715048  0.27245285  0.00431572    -0.29100
C940        C  0.29178066  0.26655514  0.99563596    -0.04300
C941        C  0.31446473  0.27704943  0.01829224     0.04300
C942        C  0.29182565  0.28908865  0.54062352     0.02400
H943        H  0.29982921  0.25671349  0.97418947     0.07500
H944        H  0.29986757  0.29903727  0.56205434     0.06300
C945        C  0.09610546  0.51349330  0.90898755     0.85700
C946        C  0.10943861  0.02716849  0.87940078    -0.54500
C947        C  0.09193615  0.00505255  0.85768442     0.08600
C948        C  0.06158886  0.47116195  0.86783847     0.19600
C949        C  0.05528960  0.52277285  0.90842271    -0.55200
C950        C  0.03601851  0.50010637  0.88750630     0.08700
C951        C  0.09946354  0.46170093  0.91004724    -0.54800
C952        C  0.08157561  0.43843772  0.88872695     0.09300
H953        H  0.13069782  0.05239264  0.87583478     0.13800
H954        H  0.04725677  0.45382870  0.85000375    -0.00400
H955        H  0.04344181  0.54494286  0.92438517     0.14100
H956        H  0.11504609  0.44597357  0.92703265     0.13900
C957        C  0.09605795  0.05982027  0.63767821     0.85700
C958        C  0.10970403  0.04968304  0.66766443    -0.54500
C959        C  0.09239009  0.07399091  0.68853207     0.08600
C960        C  0.06183413  0.10660557  0.67705909     0.19600
C961        C  0.05526098  0.05048672  0.63890957    -0.55200
C962        C  0.03606310  0.07541823  0.65884200     0.08700
C963        C  0.09932883  0.11130278  0.63424338    -0.54800
C964        C  0.08160184  0.13691261  0.65453505     0.09300
H965        H  0.13080567  0.02466009  0.67216526     0.13800
H966        H  0.04760242  0.12584812  0.69415441    -0.00400
H967        H  0.04338756  0.02654713  0.62399012     0.14100
H968        H  0.11464002  0.12505493  0.61644331     0.13900
N969        N  0.16024425  0.02136024  0.58290531    -0.28100
N970        N  0.13001022  0.02568355  0.56788083    -0.35900
C971        C  0.10220684  0.03408425  0.58568331     0.00300
C972        C  0.11508481  0.03503977  0.61358785     0.06300
C973        C  0.15232990  0.02753459  0.61085942    -0.06800
H974        H  0.07534852  0.04417311  0.57855403     0.07000
H975        H  0.17258457  0.03097212  0.62756544     0.08200
Cu976      Cu  0.12843445  0.03175511  0.52391269     0.44200
Cu977      Cu  0.21086934  0.01668435  0.56318465     0.42000
Cu978      Cu  0.21106282  0.54487329  0.48541456     0.43900
N979        N  0.13019717  0.04000632  0.48007911    -0.35500
N980        N  0.16062827  0.54432221  0.96532141    -0.29700
C981        C  0.15278407  0.54102961  0.93717326    -0.05800
C982        C  0.11538565  0.53540219  0.93403880     0.06400
C983        C  0.10231740  0.53432494  0.96191556     0.00200
H984        H  0.17306334  0.53819633  0.92044425     0.07900
H985        H  0.07512552  0.02488454  0.96861742     0.06900
N986        N  0.25717853  0.53525636  0.51047611    -0.36900
N987        N  0.25713639  0.02222520  0.53769110    -0.29100
C988        C  0.29176870  0.01628454  0.54635541    -0.04300
C989        C  0.31445035  0.52684317  0.52371145     0.04300
C990        C  0.29180696  0.53896422  0.50140396     0.02400
H991        H  0.29982132  0.00638982  0.56778835     0.07500
H992        H  0.29984585  0.54899520  0.47999050     0.06300
O993        O  0.60470504  0.79538217  0.06582431    -0.73700
O994        O  0.60178298  0.83232273  0.48323523    -0.74700
O995        O  0.55156034  0.81372027  0.02552351    -0.63300
O996        O  0.65939479  0.81372723  0.02405057    -0.71700
O997        O  0.65923038  0.73984354  0.51279925    -0.71300
O998        O  0.55137991  0.74071672  0.51180033    -0.62500
O999        O  0.60434151  0.75888115  0.47113093    -0.75000
O1000       O  0.60150458  0.72180022  0.05422280    -0.73800
Cu1001     Cu  0.60485531  0.81634901  0.02510111     1.04600
Cu1002     Cu  0.60459638  0.73765876  0.51204046     1.04300
C1003       C  0.60009901  0.75357924  0.07299726     0.92500
C1004       C  0.60004503  0.80090772  0.46428985     0.91600
C1005       C  0.53475034  0.77725461  0.51868605     0.83800
C1006       C  0.67640663  0.77678113  0.01832820     0.90000
O1007       O  0.42623566  0.75892512  0.47121775    -0.73700
O1008       O  0.42905992  0.72184679  0.05429183    -0.74700
O1009       O  0.37134427  0.73995833  0.51289945    -0.63300
O1010       O  0.47919781  0.74073319  0.51185152    -0.71700
O1011       O  0.47915103  0.81373601  0.02557681    -0.71300
O1012       O  0.37131824  0.81384311  0.02414875    -0.62500
O1013       O  0.42600111  0.79542669  0.06591065    -0.75000
O1014       O  0.42894057  0.83236942  0.48330627    -0.73800
Cu1015     Cu  0.42597345  0.73771649  0.51211946     1.04600
Cu1016     Cu  0.42586269  0.81640714  0.02518061     1.04300
C1017       C  0.43060723  0.80094032  0.46436648     0.92500
C1018       C  0.43052961  0.75361134  0.07307267     0.91600
C1019       C  0.35423733  0.77691725  0.51843048     0.83800
C1020       C  0.49589428  0.77726263  0.51871495     0.90000
C1021       C  0.43451332  0.80391972  0.38299638     0.85700
C1022       C  0.43119026  0.85571447  0.38192389    -0.54500
C1023       C  0.44908377  0.87896734  0.40324368     0.08600
C1024       C  0.46905637  0.84623452  0.42413506     0.19600
C1025       C  0.47531900  0.79458932  0.38356379    -0.55200
C1026       C  0.49460763  0.81725719  0.40446691     0.08700
C1027       C  0.42116779  0.79027578  0.41258493    -0.54800
C1028       C  0.43868506  0.81238257  0.43429723     0.09300
H1029       H  0.41561784  0.87145159  0.36493614     0.13800
H1030       H  0.48340167  0.86355977  0.44196610    -0.00400
H1031       H  0.48714868  0.77238227  0.36761346     0.14100
H1032       H  0.39989009  0.76507758  0.41615482     0.13900
C1033       C  0.43457385  0.75755965  0.15429750     0.85700
C1034       C  0.43128879  0.70608038  0.15772743    -0.54500
C1035       C  0.44900599  0.68046487  0.13743399     0.08600
C1036       C  0.46877372  0.71076866  0.11490640     0.19600
C1037       C  0.47537369  0.76687319  0.15306245    -0.55200
C1038       C  0.49455687  0.74194646  0.13311791     0.08700
C1039       C  0.42092425  0.76771195  0.12431425    -0.54800
C1040       C  0.43822703  0.74340309  0.10344180     0.09300
H1041       H  0.41597767  0.69233615  0.17552958     0.13800
H1042       H  0.48299411  0.69152102  0.09780724    -0.00400
H1043       H  0.48725967  0.79079314  0.16798833     0.14100
H1044       H  0.39983190  0.79274978  0.11981857     0.13900
N1045       N  0.37038866  0.79597193  0.20907744    -0.28100
N1046       N  0.40062357  0.79165392  0.22410185    -0.35900
C1047       C  0.42842973  0.78327670  0.20629705     0.00300
C1048       C  0.41555251  0.78233551  0.17839173     0.06300
C1049       C  0.37830574  0.78982199  0.18112234    -0.06800
H1050       H  0.45529098  0.77319511  0.21342390     0.07000
H1051       H  0.35805209  0.78638467  0.16441564     0.08200
Cu1052     Cu  0.40220394  0.78559274  0.26807174     0.44200
Cu1053     Cu  0.31975493  0.80061471  0.22878601     0.42000
Cu1054     Cu  0.31954739  0.77273442  0.30658398     0.43900
N1055       N  0.40041640  0.77741963  0.31191137    -0.35500
N1056       N  0.36997494  0.77320731  0.32666730    -0.29700
C1057       C  0.37781430  0.77650339  0.35481416    -0.05800
C1058       C  0.41521909  0.78202475  0.35795245     0.06400
C1059       C  0.42830025  0.78303969  0.33007799     0.00200
H1060       H  0.35753480  0.77940925  0.37153812     0.07900
H1061       H  0.45551133  0.79239545  0.32337759     0.06900
N1062       N  0.27343929  0.78220988  0.28150904    -0.36900
N1063       N  0.27347843  0.79511302  0.25427070    -0.29100
C1064       C  0.23884333  0.80096915  0.24559154    -0.04300
C1065       C  0.21616784  0.79048740  0.26825358     0.04300
C1066       C  0.23881437  0.77850335  0.29058588     0.02400
H1067       H  0.23078632  0.81076613  0.22414185     0.07500
H1068       H  0.23078044  0.76857013  0.31201840     0.06300
C1069       C  0.43456549  0.00751083  0.38769051     0.85700
C1070       C  0.42091490  0.01764454  0.41767807    -0.54500
C1071       C  0.43822820  0.99333994  0.43853925     0.08600
C1072       C  0.46878828  0.96073147  0.42706109     0.19600
C1073       C  0.47536167  0.01685024  0.38892802    -0.55200
C1074       C  0.49455754  0.99191812  0.40885456     0.08700
C1075       C  0.43130177  0.95602710  0.38423994    -0.54800
C1076       C  0.44902959  0.93042216  0.40452733     0.09300
H1077       H  0.39981126  0.04266588  0.42218515     0.13800
H1078       H  0.48301862  0.94149337  0.44415304    -0.00400
H1079       H  0.48723668  0.04078765  0.37401514     0.14100
H1080       H  0.41599478  0.94227160  0.36643448     0.13900
C1081       C  0.43449612  0.55398288  0.15899391     0.85700
C1082       C  0.42115124  0.54028494  0.12940970    -0.54500
C1083       C  0.43866125  0.56236575  0.10768937     0.08600
C1084       C  0.46902285  0.59624778  0.11783635     0.19600
C1085       C  0.47530629  0.54467318  0.15842515    -0.55200
C1086       C  0.49458340  0.56730652  0.13750573     0.08700
C1087       C  0.43116077  0.60577777  0.16004786    -0.54800
C1088       C  0.44904988  0.62900711  0.13872050     0.09300
H1089       H  0.39988083  0.51507141  0.12584835     0.13800
H1090       H  0.48335942  0.61355397  0.09999853    -0.00400
H1091       H  0.48714658  0.52250842  0.17438716     0.14100
H1092       H  0.41558836  0.62153086  0.17703405     0.13900
N1093       N  0.37037103  0.54600031  0.33294038    -0.28100
N1094       N  0.40060717  0.54171057  0.31791245    -0.35900
C1095       C  0.42841170  0.53329098  0.33570853     0.00300
C1096       C  0.41553306  0.03229494  0.36361171     0.06300
C1097       C  0.37828661  0.03979085  0.36088915    -0.06800
H1098       H  0.45527427  0.02322802  0.32857156     0.07000
H1099       H  0.35803284  0.03632770  0.37759261     0.08200
Cu1100     Cu  0.40219439  0.53572997  0.27393655     0.44200
Cu1101     Cu  0.31973699  0.55067986  0.31323270     0.42000
Cu1102     Cu  0.31955540  0.52264237  0.23544226     0.43900
N1103       N  0.40041773  0.52753476  0.23009502    -0.35500
N1104       N  0.36998090  0.52323167  0.21534192    -0.29700
C1105       C  0.37781509  0.52651614  0.18719303    -0.05800
C1106       C  0.41521367  0.53211763  0.18405176     0.06400
C1107       C  0.42829296  0.53319827  0.21192622     0.00200
H1108       H  0.35753109  0.52934322  0.17046807     0.07900
H1109       H  0.45549374  0.54261104  0.21862388     0.06900
N1110       N  0.27343521  0.53216600  0.26050997    -0.36900
N1111       N  0.27346722  0.54514992  0.28773745    -0.29100
C1112       C  0.23883004  0.55105791  0.29640161    -0.04300
C1113       C  0.21615810  0.54052526  0.27374271     0.04300
C1114       C  0.23881134  0.52845342  0.25142827     0.02400
H1115       H  0.23076804  0.56091976  0.31784136     0.07500
H1116       H  0.23078237  0.51846146  0.23000236     0.06300
O1117       O  0.60152295  0.97185859  0.98770117    -0.73700
O1118       O  0.60434781  0.50897163  0.07078788    -0.74700
O1119       O  0.55139234  0.99074784  0.03012818    -0.63300
O1120       O  0.65923494  0.98997350  0.02911559    -0.71700
O1121       O  0.65935965  0.56385724  0.01788433    -0.71300
O1122       O  0.55152567  0.56374464  0.01641204    -0.62500
O1123       O  0.60173606  0.58240886  0.05870123    -0.75000
O1124       O  0.60468478  0.04543670  0.47610396    -0.73800
Cu1125     Cu  0.60460835  0.98773824  0.02987991     1.04600
Cu1126     Cu  0.60481964  0.56642476  0.01683207     1.04300
C1127       C  0.60010187  0.00362435  0.46892928     0.92500
C1128       C  0.60002102  0.55099345  0.07763849     0.91600
C1129       C  0.53473930  0.02726888  0.02325393     0.83800
C1130       C  0.67638978  0.52692522  0.02359699     0.90000
O1131       O  0.42595499  0.04533653  0.47608486    -0.74500
O1132       O  0.42890317  0.58229938  0.05868552    -0.74700
O1133       O  0.47911300  0.56370030  0.01639923    -0.63300
O1134       O  0.37127922  0.56369614  0.01786109    -0.71700
O1135       O  0.37135899  0.98981293  0.02909166    -0.71300
O1136       O  0.47921362  0.99070576  0.03011907    -0.62500
O1137       O  0.42624805  0.50885934  0.07076988    -0.75000
O1138       O  0.42908244  0.97176177  0.98768336    -0.73800
Cu1139     Cu  0.42582112  0.56631963  0.01681429     1.04600
Cu1140     Cu  0.42599178  0.98763379  0.02986202     1.04300
C1141       C  0.43052126  0.00352872  0.46891141     0.92500
C1142       C  0.43058976  0.55088449  0.07762294     0.91600
C1143       C  0.49588325  0.02724535  0.02324785     0.83800
C1144       C  0.35422462  0.52675247  0.02357263     0.90000
C1145       C  0.59606805  0.00763675  0.38771029     0.85700
C1146       C  0.59932863  0.95616173  0.38424761    -0.54500
C1147       C  0.58160434  0.93051288  0.40452966     0.08600
C1148       C  0.56183683  0.96078005  0.42706549     0.19600
C1149       C  0.55527626  0.01692058  0.38894715    -0.55200
C1150       C  0.53607348  0.99194364  0.40886050     0.08700
C1151       C  0.60971724  0.01777202  0.41770036    -0.54800
C1152       C  0.59239815  0.99343084  0.43855516     0.09300
H1153       H  0.61464131  0.94244737  0.36644101     0.13800
H1154       H  0.54760134  0.94150608  0.44414989    -0.00400
H1155       H  0.54340823  0.04086841  0.37405032     0.14100
H1156       H  0.63082466  0.04282139  0.42221287     0.13900
C1157       C  0.59607371  0.55411862  0.15900750     0.85700
C1158       C  0.59941294  0.60591911  0.16005419    -0.54500
C1159       C  0.58153196  0.62910715  0.13871966     0.08600
C1160       C  0.56156537  0.59630621  0.11783583     0.19600
C1161       C  0.55526454  0.54474449  0.15843368    -0.55200
C1162       C  0.53599570  0.56733541  0.13750641     0.08700
C1163       C  0.60942972  0.54042587  0.12942931    -0.54800
C1164       C  0.59193101  0.56246939  0.10770127     0.09300
H1165       H  0.61497786  0.62170949  0.17704101     0.13800
H1166       H  0.54723600  0.61357772  0.09999066    -0.00400
H1167       H  0.54341813  0.52257940  0.17440371     0.14100
H1168       H  0.63070025  0.51524487  0.12587703     0.13900
N1169       N  0.66028411  0.54602835  0.33294783    -0.28100
N1170       N  0.63001806  0.54188614  0.31793706    -0.35900
C1171       C  0.60220515  0.03354670  0.33574892     0.00300
C1172       C  0.61511449  0.03245854  0.36364398     0.06300
C1173       C  0.65238139  0.03981092  0.36089687    -0.06800
H1174       H  0.57530452  0.02358009  0.32862335     0.07000
H1175       H  0.67264433  0.03621938  0.37758009     0.08200
Cu1176     Cu  0.62838552  0.53596779  0.27395655     0.44200
Cu1177     Cu  0.71090840  0.55048658  0.31322402     0.42000
Cu1178     Cu  0.71100648  0.52270678  0.23541656     0.43900
N1179       N  0.63014495  0.52776661  0.23011340    -0.35500
N1180       N  0.66056551  0.52339856  0.21535133    -0.29700
C1181       C  0.65272415  0.52665025  0.18720368    -0.05800
C1182       C  0.61533679  0.53229658  0.18407363     0.06400
C1183       C  0.60227196  0.53344033  0.21195005     0.00200
H1184       H  0.67300472  0.52940750  0.17046929     0.07900
H1185       H  0.57508859  0.54288563  0.21864860     0.06900
N1186       N  0.75715800  0.53199450  0.26048906    -0.36900
N1187       N  0.75715433  0.54486289  0.28773724    -0.29100
C1188       C  0.79179987  0.55065902  0.29641706    -0.04300
C1189       C  0.81444881  0.54017493  0.27374553     0.04300
C1190       C  0.79177502  0.52825097  0.25140414     0.02400
H1191       H  0.79987873  0.56045167  0.31786779     0.07500
H1192       H  0.79978529  0.51836840  0.22995649     0.06300
C1193       C  0.59609110  0.80406298  0.38291768     0.85700
C1194       C  0.60944760  0.79035149  0.41248958    -0.54500
C1195       C  0.59195988  0.81239739  0.43423006     0.08600
C1196       C  0.56160345  0.84625551  0.42411334     0.19600
C1197       C  0.55527703  0.79471386  0.38349250    -0.55200
C1198       C  0.53602080  0.81729715  0.40443928     0.08700
C1199       C  0.59944642  0.85586044  0.38189475    -0.54800
C1200       C  0.58156929  0.87905446  0.40323564     0.09300
H1201       H  0.63070888  0.76515639  0.41602855     0.13800
H1202       H  0.54728374  0.86353275  0.44196673    -0.00400
H1203       H  0.54341949  0.77257337  0.36750759     0.14100
H1204       H  0.61501166  0.87164386  0.36491089     0.13900
C1205       C  0.59608055  0.75770078  0.15421511     0.85700
C1206       C  0.60972673  0.76778241  0.12422108    -0.54500
C1207       C  0.59239518  0.74342109  0.10337451     0.08600
C1208       C  0.56182416  0.71080341  0.11487790     0.19600
C1209       C  0.55529031  0.76700413  0.15297990    -0.55200
C1210       C  0.53607357  0.74199643  0.13308242     0.08700
C1211       C  0.59932425  0.70622718  0.15769245    -0.54800
C1212       C  0.58158530  0.68056078  0.13741922     0.09300
H1213       H  0.63084147  0.79281436  0.11969948     0.13800
H1214       H  0.54757787  0.69151500  0.09780014    -0.00400
H1215       H  0.54343255  0.79098448  0.16786882     0.14100
H1216       H  0.61463581  0.69252523  0.17549982     0.13900
N1217       N  0.66031216  0.79619662  0.20895727    -0.28100
N1218       N  0.63005097  0.79205202  0.22397343    -0.35900
C1219       C  0.60223669  0.78367229  0.20616846     0.00300
C1220       C  0.61513713  0.78255444  0.17827212     0.06300
C1221       C  0.65240281  0.78993690  0.18101018    -0.06800
H1222       H  0.57534312  0.77369372  0.21330089     0.07000
H1223       H  0.67266180  0.78633779  0.16432350     0.08200
Cu1224     Cu  0.62841743  0.78613432  0.26795203     0.44200
Cu1225     Cu  0.71094273  0.80069971  0.22867756     0.42000
Cu1226     Cu  0.71100540  0.77272239  0.30646180     0.43900
N1227       N  0.63015207  0.77781351  0.31178524    -0.35500
N1228       N  0.66056918  0.77338298  0.32654200    -0.29700
C1229       C  0.65272771  0.77657597  0.35469418    -0.05800
C1230       C  0.61534191  0.78224961  0.35783212     0.06400
C1231       C  0.60228065  0.78346636  0.32995516     0.00200
H1232       H  0.67300974  0.77928559  0.37143124     0.07900
H1233       H  0.57510432  0.79295780  0.32326735     0.06900
N1234       N  0.75716538  0.78210229  0.28141057    -0.36900
N1235       N  0.75717656  0.79504927  0.25418041    -0.29100
C1236       C  0.79182817  0.80087412  0.24552229    -0.04300
C1237       C  0.81446472  0.79032490  0.26818745     0.04300
C1238       C  0.79177725  0.77833422  0.29050223     0.02400
H1239       H  0.79992022  0.81071732  0.22408672     0.07500
H1240       H  0.79977516  0.76838077  0.31193695     0.06300
O1241       O  0.10435756  0.80847511  0.22123500    -0.73700
O1242       O  0.10156759  0.84557716  0.30431693    -0.74700
O1243       O  0.15926303  0.82751628  0.26289184    -0.63300
O1244       O  0.05141559  0.82663633  0.26189584    -0.71700
O1245       O  0.05151117  0.75364061  0.27561369    -0.71300
O1246       O  0.15934459  0.75363203  0.27412108    -0.62500
O1247       O  0.10468814  0.77200454  0.31592150    -0.75000
O1248       O  0.10169894  0.73503331  0.23331449    -0.73800
Cu1249     Cu  0.10463522  0.82970078  0.26213954     1.04600
Cu1250     Cu  0.10480282  0.75101454  0.27518706     1.04300
C1251       C  0.10000671  0.76645266  0.21437995     0.92500
C1252       C  0.10012902  0.81381603  0.32309236     0.91600
C1253       C  0.17639691  0.79057467  0.26840234     0.83800
C1254       C  0.03474362  0.79009713  0.26876355     0.90000
O1255       O  0.92889584  0.73495324  0.23327469    -0.73700
O1256       O  0.92592689  0.77190513  0.31587553    -0.74700
O1257       O  0.87126072  0.75350128  0.27407716    -0.63300
O1258       O  0.97909635  0.75360028  0.27558065    -0.71700
O1259       O  0.97923968  0.82659595  0.26186252    -0.71300
O1260       O  0.87139592  0.82738834  0.26285486    -0.62500
O1261       O  0.92910627  0.84548386  0.30428326    -0.75000
O1262       O  0.92628540  0.80839200  0.22119176    -0.73800
Cu1263     Cu  0.92580169  0.75092712  0.27514514     1.04600
Cu1264     Cu  0.92602351  0.82961511  0.26210193     1.04300
C1265       C  0.93060533  0.76637048  0.21433830     0.92500
C1266       C  0.93052369  0.81371398  0.32305283     0.91600
C1267       C  0.85423535  0.79043503  0.26835907     0.83800
C1268       C  0.99588774  0.79007508  0.26874501     0.90000
C1269       C  0.93457724  0.80970052  0.40427255     0.85700
C1270       C  0.92092793  0.79955784  0.37428358    -0.54500
C1271       C  0.93824253  0.82389815  0.35342664     0.08600
C1272       C  0.96880420  0.85655285  0.36491258     0.19600
C1273       C  0.97537091  0.80042350  0.40303520    -0.55200
C1274       C  0.99457259  0.82540568  0.38312264     0.08700
C1275       C  0.93131395  0.86117868  0.40773174    -0.54800
C1276       C  0.94903706  0.88682178  0.38744531     0.09300
H1277       H  0.89982032  0.77450807  0.36977314     0.13800
H1278       H  0.98303810  0.87582125  0.34782522    -0.00400
H1279       H  0.98724073  0.77648246  0.41793553     0.14100
H1280       H  0.91600502  0.87490166  0.42553828     0.13900
C1281       C  0.93452010  0.76324770  0.13296666     0.85700
C1282       C  0.92117878  0.77694763  0.16254809    -0.54500
C1283       C  0.93867864  0.75489450  0.18427316     0.08600
C1284       C  0.96902995  0.72104309  0.17413373     0.19600
C1285       C  0.97533476  0.77259870  0.13353374    -0.55200
C1286       C  0.99460159  0.75000784  0.15446320     0.08700
C1287       C  0.93116434  0.71144892  0.13192343    -0.54800
C1288       C  0.94905065  0.68825024  0.15325209     0.09300
H1289       H  0.89991743  0.80213926  0.16610439     0.13800
H1290       H  0.98335879  0.70376212  0.19197577    -0.00400
H1291       H  0.98718529  0.79475561  0.11756111     0.14100
H1292       H  0.91558624  0.69566897  0.11494057     0.13900
N1293       N  0.87037151  0.77116930  0.45901881    -0.28100
N1294       N  0.90062188  0.77539857  0.47404020    -0.35900
C1295       C  0.92843120  0.78381733  0.45623954     0.00300
C1296       C  0.91553716  0.78487198  0.42834076     0.06300
C1297       C  0.87828077  0.77741375  0.43107240    -0.06800
H1298       H  0.95531231  0.79385033  0.46337436     0.07000
H1299       H  0.85802241  0.78093958  0.41438021     0.08200
Cu1300     Cu  0.90222206  0.78133709  0.01801870     0.44200
Cu1301     Cu  0.81974285  0.76655927  0.47873190     0.42000
Cu1302     Cu  0.81960168  0.79461181  0.05651593     0.43900
N1303       N  0.90045740  0.78959887  0.06185584    -0.35500
N1304       N  0.87003284  0.79397665  0.07661096    -0.29700
C1305       C  0.87786904  0.79073291  0.10476155    -0.05800
C1306       C  0.91525756  0.78507961  0.10789899     0.06400
C1307       C  0.92832583  0.78392803  0.08002359     0.00200
H1308       H  0.85758461  0.78797410  0.12149295     0.07900
H1309       H  0.95550727  0.77446721  0.07332865     0.06900
N1310       N  0.77346524  0.78515086  0.03144121    -0.36900
N1311       N  0.77348453  0.77217049  0.50421329    -0.29100
C1312       C  0.73884308  0.76630695  0.49553656    -0.04300
C1313       C  0.71617966  0.77686333  0.51818724     0.04300
C1314       C  0.73884264  0.78890175  0.04051210     0.02400
H1315       H  0.73077543  0.75644841  0.47409507     0.07500
H1316       H  0.73082008  0.79888961  0.06193775     0.06300
C1317       C  0.93451861  0.01329208  0.40899314     0.85700
C1318       C  0.93118067  0.96149275  0.41004950    -0.54500
C1319       C  0.94907318  0.93827832  0.38872552     0.08600
C1320       C  0.96904247  0.97105499  0.36783644     0.19600
C1321       C  0.97532804  0.02266901  0.40842483    -0.55200
C1322       C  0.99460495  0.00005604  0.38750529     0.08700
C1323       C  0.92117056  0.52694490  0.37941014    -0.54800
C1324       C  0.93867600  0.50487533  0.35768864     0.09300
H1325       H  0.91560862  0.94572267  0.42703504     0.13800
H1326       H  0.98337873  0.95376170  0.34999789    -0.00400
H1327       H  0.98716881  0.04485861  0.42439086     0.14100
H1328       H  0.89990039  0.55212095  0.37585006     0.13900
C1329       C  0.93455080  0.55966940  0.13769226     0.85700
C1330       C  0.93128305  0.61114421  0.13424880    -0.54500
C1331       C  0.94900587  0.63679258  0.15453833     0.08600
C1332       C  0.96877370  0.60652539  0.17706626     0.19600
C1333       C  0.97534535  0.55039683  0.13892645    -0.55200
C1334       C  0.99454472  0.57537515  0.15885000     0.08700
C1335       C  0.92090151  0.54952285  0.16767814    -0.54800
C1336       C  0.93821563  0.57386217  0.18854349     0.09300
H1337       H  0.91597419  0.62486067  0.11644469     0.13800
H1338       H  0.98300567  0.62579897  0.19415844    -0.00400
H1339       H  0.98721704  0.52645994  0.12401734     0.14100
H1340       H  0.89979732  0.52446794  0.17218015     0.13900
N1341       N  0.87034010  0.52125934  0.08291629    -0.28100
N1342       N  0.90059608  0.52546930  0.06790186    -0.35900
C1343       C  0.92840932  0.53382132  0.08571339     0.00300
C1344       C  0.91551098  0.53485292  0.11361249     0.06300
C1345       C  0.87824890  0.52745010  0.11086887    -0.06800
H1346       H  0.95529813  0.54383648  0.07858984     0.07000
H1347       H  0.85798954  0.53098698  0.12756046     0.08200
Cu1348     Cu  0.90220173  0.53146149  0.02392797     0.44200
Cu1349     Cu  0.81971518  0.51674080  0.06319363     0.42000
Cu1350     Cu  0.81957704  0.54463761  0.98540139     0.43900
N1351       N  0.90043803  0.53969640  0.48009165    -0.35500
N1352       N  0.87001521  0.04403175  0.46533052    -0.29700
C1353       C  0.87785857  0.04077019  0.43718241    -0.05800
C1354       C  0.91524900  0.03514610  0.43405211     0.06400
C1355       C  0.92831341  0.53403322  0.46192856     0.00200
H1356       H  0.85757920  0.03797363  0.42044890     0.07900
H1357       H  0.95549765  0.52459725  0.46862754     0.06900
N1358       N  0.77344251  0.53525225  0.01047639    -0.36900
N1359       N  0.77346066  0.52234810  0.03771431    -0.29100
C1360       C  0.73881957  0.51652948  0.04639841    -0.04300
C1361       C  0.71615921  0.52703478  0.02374095     0.04300
C1362       C  0.73882115  0.03899387  0.00140342     0.02400
H1363       H  0.73075118  0.50672199  0.06784589     0.07500
H1364       H  0.73079966  0.04891576  0.47996848     0.06300
O1365       O  0.10170191  0.48508364  0.30867812    -0.73700
O1366       O  0.10466081  0.52200414  0.22607366    -0.74700
O1367       O  0.15933335  0.50367097  0.26786220    -0.63300
O1368       O  0.05150199  0.50365023  0.26638516    -0.71700
O1369       O  0.05138872  0.57665585  0.28010392    -0.71300
O1370       O  0.15924577  0.57755736  0.27910603    -0.62500
O1371       O  0.10153728  0.59558398  0.23768099    -0.75000
O1372       O  0.10434110  0.55853232  0.32076508    -0.73800
Cu1373     Cu  0.10479161  0.50104034  0.26680560     1.04600
Cu1374     Cu  0.10461197  0.57973331  0.27985969     1.04300
C1375       C  0.10000512  0.51651108  0.32761671     0.92500
C1376       C  0.10009704  0.56380973  0.21890436     0.91600
C1377       C  0.17638403  0.54061603  0.27358844     0.83800
C1378       C  0.03472555  0.54010640  0.27323244     0.90000
O1379       O  0.97909670  0.50357973  0.26639081    -0.73700
O1380       O  0.87126435  0.50339502  0.26786117    -0.74700
O1381       O  0.92593914  0.52184685  0.22608000    -0.63300
O1382       O  0.92889527  0.48489951  0.30868054    -0.71700
O1383       O  0.92625106  0.55834014  0.32077501    -0.71300
O1384       O  0.92906541  0.59542852  0.23769503    -0.62500
O1385       O  0.87135782  0.57728145  0.27910773    -0.75000
O1386       O  0.97920364  0.57658110  0.28011912    -0.73800
Cu1387     Cu  0.92580662  0.50086652  0.26680889     1.04600
Cu1388     Cu  0.92598432  0.57955665  0.27987091     1.04300
C1389       C  0.99586977  0.54006701  0.27323840     0.92500
C1390       C  0.85421844  0.54031506  0.27358578     0.91600
C1391       C  0.93050687  0.56366196  0.21891523     0.83800
C1392       C  0.93059365  0.51632508  0.32762241     0.90000
C1393       C  0.09607997  0.80990425  0.40431950     0.85700
C1394       C  0.09934724  0.86138946  0.40775011    -0.54500
C1395       C  0.08162455  0.88697868  0.38745357     0.08600
C1396       C  0.06186238  0.85664677  0.36492990     0.19600
C1397       C  0.05528477  0.80056530  0.40308424    -0.55200
C1398       C  0.03609030  0.82547066  0.38314475     0.08700
C1399       C  0.10973283  0.79973750  0.37433528    -0.54800
C1400       C  0.09242150  0.82402342  0.35346364     0.09300
H1401       H  0.11465316  0.87515820  0.42555192     0.13800
H1402       H  0.04763317  0.87587208  0.34783131    -0.00400
H1403       H  0.04340988  0.77664088  0.41800513     0.14100
H1404       H  0.13083621  0.77471121  0.36983895     0.13900
C1405       C  0.09610707  0.76341075  0.13301262     0.85700
C1406       C  0.09944882  0.71161576  0.13194170    -0.54500
C1407       C  0.08155468  0.68836927  0.15325921     0.08600
C1408       C  0.06157275  0.72110948  0.17414980     0.19600
C1409       C  0.05529608  0.77271442  0.13357573    -0.55200
C1410       C  0.03601424  0.75005732  0.15448129     0.08700
C1411       C  0.10944209  0.77708637  0.16260158    -0.54800
C1412       C  0.09193064  0.75498684  0.18431202     0.09300
H1413       H  0.11502793  0.69587446  0.11495460     0.13800
H1414       H  0.04723272  0.70379076  0.19198071    -0.00400
H1415       H  0.04345818  0.79489322  0.11762013     0.14100
H1416       H  0.13071010  0.80229950  0.16617358     0.13900
N1417       N  0.16026143  0.77153511  0.45910379    -0.28100
N1418       N  0.13001815  0.77581675  0.47412214    -0.35900
C1419       C  0.10221565  0.78418291  0.45631422     0.00300
C1420       C  0.11510631  0.78515081  0.42841274     0.06300
C1421       C  0.15235544  0.77769688  0.43114992    -0.06800
H1422       H  0.07534458  0.79423193  0.46343905     0.07000
H1423       H  0.17261486  0.78115909  0.41445068     0.08200
Cu1424     Cu  0.12843165  0.78183465  0.01809538     0.44200
Cu1425     Cu  0.21088018  0.76691889  0.47883002     0.42000
Cu1426     Cu  0.21108011  0.79488421  0.05662805     0.43900
N1427       N  0.13020898  0.78997758  0.06193897    -0.35500
N1428       N  0.16063960  0.79426530  0.07670284    -0.29700
C1429       C  0.15279399  0.79093206  0.10484692    -0.05800
C1430       C  0.11539621  0.78531031  0.10797285     0.06400
C1431       C  0.10232795  0.78427204  0.08009611     0.00200
H1432       H  0.17307113  0.78808397  0.12157576     0.07900
H1433       H  0.07513235  0.77485930  0.07338533     0.06900
N1434       N  0.25719605  0.78539677  0.03155049    -0.36900
N1435       N  0.25715053  0.77245290  0.50431571    -0.29100
C1436       C  0.29178072  0.76655517  0.49563596    -0.04300
C1437       C  0.31446479  0.77704945  0.51829224     0.04300
C1438       C  0.29182573  0.78908866  0.04062353     0.02400
H1439       H  0.29982930  0.75671346  0.47418946     0.07500
H1440       H  0.29986767  0.79903729  0.06205435     0.06300
C1441       C  0.09610554  0.01349328  0.40898751     0.85700
C1442       C  0.10943850  0.52716851  0.37940075    -0.54500
C1443       C  0.09193604  0.50505254  0.35768439     0.08600
C1444       C  0.06158890  0.97116195  0.36783844     0.19600
C1445       C  0.05528968  0.02277280  0.40842266    -0.55200
C1446       C  0.03601855  0.00010638  0.38750625     0.08700
C1447       C  0.09946360  0.96170091  0.41004723    -0.54800
C1448       C  0.08157566  0.93843772  0.38872693     0.09300
H1449       H  0.13069765  0.55239259  0.37583476     0.13800
H1450       H  0.04725683  0.95382872  0.35000372    -0.00400
H1451       H  0.04344183  0.04494275  0.42438519     0.14100
H1452       H  0.11504613  0.94597361  0.42703261     0.13900
C1453       C  0.09605792  0.55982029  0.13767823     0.85700
C1454       C  0.10970397  0.54968309  0.16766444    -0.54500
C1455       C  0.09239010  0.57399098  0.18853206     0.08600
C1456       C  0.06183409  0.60660563  0.17705915     0.19600
C1457       C  0.05526097  0.55048672  0.13890962    -0.55200
C1458       C  0.03606310  0.57541822  0.15884205     0.08700
C1459       C  0.09932872  0.61130281  0.13424342    -0.54800
C1460       C  0.08160176  0.63691266  0.15453508     0.09300
H1461       H  0.13080563  0.52466001  0.17216529     0.13800
H1462       H  0.04760242  0.62584815  0.19415446    -0.00400
H1463       H  0.04338757  0.52654713  0.12399015     0.14100
H1464       H  0.11463993  0.62505500  0.11644331     0.13900
N1465       N  0.16024428  0.52136008  0.08290535    -0.28100
N1466       N  0.13001026  0.52568352  0.06788087    -0.35900
C1467       C  0.10220690  0.53408429  0.08568334     0.00300
C1468       C  0.11508481  0.53503980  0.11358787     0.06300
C1469       C  0.15232991  0.52753452  0.11085947    -0.06800
H1470       H  0.07534854  0.54417322  0.07855405     0.07000
H1471       H  0.17258453  0.53097207  0.12756550     0.08200
Cu1472     Cu  0.12843451  0.53175515  0.02391273     0.44200
Cu1473     Cu  0.21086935  0.51668436  0.06318452     0.42000
Cu1474     Cu  0.21106280  0.04487325  0.98541452     0.43900
N1475       N  0.13019716  0.54000629  0.98007914    -0.35500
N1476       N  0.16062828  0.04432239  0.46532141    -0.29700
C1477       C  0.15278414  0.04102965  0.43717326    -0.05800
C1478       C  0.11538574  0.03540217  0.43403876     0.06400
C1479       C  0.10231742  0.03432493  0.46191551     0.00200
H1480       H  0.17306347  0.03819632  0.42044428     0.07900
H1481       H  0.07512540  0.52488456  0.46861731     0.06900
N1482       N  0.25717847  0.03525631  0.01047609    -0.36900
N1483       N  0.25713643  0.52222521  0.03769107    -0.29100
C1484       C  0.29176873  0.51628453  0.04635542    -0.04300
C1485       C  0.31445030  0.02684340  0.02371149     0.04300
C1486       C  0.29180692  0.03896427  0.00140398     0.02400
H1487       H  0.29982130  0.50638977  0.06778835     0.07500
H1488       H  0.29984585  0.04899517  0.97999049     0.06300
O1489       O  0.60470503  0.79538221  0.56582430    -0.73700
O1490       O  0.60178299  0.83232269  0.98323525    -0.74700
O1491       O  0.55156031  0.81372029  0.52552348    -0.63300
O1492       O  0.65939477  0.81372730  0.52405050    -0.71700
O1493       O  0.65923036  0.73984353  0.01279921    -0.71300
O1494       O  0.55137989  0.74071674  0.01180034    -0.62500
O1495       O  0.60434150  0.75888116  0.97113089    -0.75000
O1496       O  0.60150458  0.72180022  0.55422285    -0.73800
Cu1497     Cu  0.60485530  0.81634909  0.52510109     1.04600
Cu1498     Cu  0.60459637  0.73765881  0.01204041     1.04300
C1499       C  0.60009902  0.75357929  0.57299728     0.92500
C1500       C  0.60004503  0.80090772  0.96428984     0.91600
C1501       C  0.53475034  0.77725461  0.01868610     0.83800
C1502       C  0.67640662  0.77678120  0.51832816     0.90000
O1503       O  0.42623566  0.75892514  0.97121774    -0.73700
O1504       O  0.42905990  0.72184673  0.55429189    -0.74700
O1505       O  0.37134426  0.73995835  0.01289945    -0.63300
O1506       O  0.47919779  0.74073332  0.01185155    -0.71700
O1507       O  0.47915101  0.81373592  0.52557674    -0.71300
O1508       O  0.37131822  0.81384307  0.52414884    -0.62500
O1509       O  0.42600113  0.79542671  0.56591062    -0.75000
O1510       O  0.42894060  0.83236937  0.98330631    -0.73800
Cu1511     Cu  0.42597345  0.73771661  0.01211945     1.04600
Cu1512     Cu  0.42586268  0.81640719  0.52518060     1.04300
C1513       C  0.43060723  0.80094033  0.96436649     0.92500
C1514       C  0.43052960  0.75361136  0.57307269     0.91600
C1515       C  0.35423733  0.77691730  0.01843041     0.83800
C1516       C  0.49589428  0.77726273  0.01871500     0.90000
C1517       C  0.43451332  0.80391971  0.88299639     0.85700
C1518       C  0.43119028  0.85571443  0.88192393    -0.54500
C1519       C  0.44908380  0.87896733  0.90324368     0.08600
C1520       C  0.46905641  0.84623453  0.92413508     0.19600
C1521       C  0.47531899  0.79458917  0.88356386    -0.55200
C1522       C  0.49460764  0.81725711  0.90446693     0.08700
C1523       C  0.42116774  0.79027583  0.91258495    -0.54800
C1524       C  0.43868503  0.81238263  0.93429724     0.09300
H1525       H  0.41561771  0.87145151  0.86493619     0.13800
H1526       H  0.48340170  0.86355984  0.94196606    -0.00400
H1527       H  0.48714865  0.77238194  0.86761357     0.14100
H1528       H  0.39989001  0.76507767  0.91615482     0.13900
C1529       C  0.43457384  0.75755972  0.65429748     0.85700
C1530       C  0.43128878  0.70608043  0.65772738    -0.54500
C1531       C  0.44900600  0.68046492  0.63743395     0.08600
C1532       C  0.46877375  0.71076874  0.61490638     0.19600
C1533       C  0.47537369  0.76687331  0.65306247    -0.55200
C1534       C  0.49455686  0.74194656  0.63311793     0.08700
C1535       C  0.42092427  0.76771207  0.62431424    -0.54800
C1536       C  0.43822705  0.74340321  0.60344181     0.09300
H1537       H  0.41597765  0.69233619  0.67552952     0.13800
H1538       H  0.48299414  0.69152119  0.59780723    -0.00400
H1539       H  0.48725961  0.79079327  0.66798830     0.14100
H1540       H  0.39983191  0.79274991  0.61981855     0.13900
N1541       N  0.37038865  0.79597194  0.70907739    -0.28100
N1542       N  0.40062356  0.79165389  0.72410180    -0.35900
C1543       C  0.42842973  0.78327681  0.70629699     0.00300
C1544       C  0.41555250  0.78233559  0.67839168     0.06300
C1545       C  0.37830572  0.78982196  0.68112231    -0.06800
H1546       H  0.45529101  0.77319529  0.71342383     0.07000
H1547       H  0.35805206  0.78638446  0.66441563     0.08200
Cu1548     Cu  0.40220394  0.78559257  0.76807169     0.44200
Cu1549     Cu  0.31975491  0.80061454  0.72878598     0.42000
Cu1550     Cu  0.31954739  0.77273458  0.80658394     0.43900
N1551       N  0.40041641  0.77741958  0.81191133    -0.35500
N1552       N  0.36997494  0.77320743  0.82666726    -0.29700
C1553       C  0.37781429  0.77650357  0.85481412    -0.05800
C1554       C  0.41521908  0.78202485  0.85795242     0.06400
C1555       C  0.42830027  0.78303976  0.83007794     0.00200
H1556       H  0.35753478  0.77940946  0.87153807     0.07900
H1557       H  0.45551130  0.79239545  0.82337753     0.06900
N1558       N  0.27343927  0.78220983  0.78150907    -0.36900
N1559       N  0.27347844  0.79511289  0.75427072    -0.29100
C1560       C  0.23884336  0.80096913  0.74559156    -0.04300
C1561       C  0.21616786  0.79048741  0.76825360     0.04300
C1562       C  0.23881436  0.77850344  0.79058591     0.02400
H1563       H  0.23078638  0.81076614  0.72414189     0.07500
H1564       H  0.23078038  0.76857032  0.81201848     0.06300
C1565       C  0.43456549  0.00751079  0.88769048     0.85700
C1566       C  0.42091487  0.01764456  0.91767804    -0.54500
C1567       C  0.43822817  0.99333991  0.93853924     0.08600
C1568       C  0.46878827  0.96073152  0.92706107     0.19600
C1569       C  0.47536165  0.01685029  0.88892798    -0.55200
C1570       C  0.49455752  0.99191818  0.90885454     0.08700
C1571       C  0.43130178  0.95602704  0.88423992    -0.54800
C1572       C  0.44902960  0.93042215  0.90452735     0.09300
H1573       H  0.39981130  0.04266586  0.92218509     0.13800
H1574       H  0.48301867  0.94149345  0.94415304    -0.00400
H1575       H  0.48723665  0.04078771  0.87401509     0.14100
H1576       H  0.41599487  0.94227148  0.86643450     0.13900
C1577       C  0.43449610  0.55398291  0.65899389     0.85700
C1578       C  0.42115122  0.54028486  0.62940968    -0.54500
C1579       C  0.43866128  0.56236563  0.60768933     0.08600
C1580       C  0.46902283  0.59624774  0.61783629     0.19600
C1581       C  0.47530626  0.54467332  0.65842512    -0.55200
C1582       C  0.49458340  0.56730660  0.63750572     0.08700
C1583       C  0.43116074  0.60577780  0.66004779    -0.54800
C1584       C  0.44904986  0.62900713  0.63872042     0.09300
H1585       H  0.39988087  0.51507137  0.62584836     0.13800
H1586       H  0.48335942  0.61355389  0.59999844    -0.00400
H1587       H  0.48714663  0.52250855  0.67438722     0.14100
H1588       H  0.41558836  0.62153090  0.67703399     0.13900
N1589       N  0.37037101  0.54600023  0.83294033    -0.28100
N1590       N  0.40060717  0.54171068  0.81791241    -0.35900
C1591       C  0.42841170  0.53329114  0.83570849     0.00300
C1592       C  0.41553304  0.03229480  0.86361164     0.06300
C1593       C  0.37828661  0.03979079  0.86088911    -0.06800
H1594       H  0.45527426  0.02322792  0.82857152     0.07000
H1595       H  0.35803283  0.03632765  0.87759255     0.08200
Cu1596     Cu  0.40219439  0.53573015  0.77393651     0.44200
Cu1597     Cu  0.31973699  0.55068001  0.81323266     0.42000
Cu1598     Cu  0.31955539  0.52264220  0.73544223     0.43900
N1599       N  0.40041773  0.52753480  0.73009500    -0.35500
N1600       N  0.36998090  0.52323156  0.71534190    -0.29700
C1601       C  0.37781510  0.52651605  0.68719303    -0.05800
C1602       C  0.41521366  0.53211767  0.68405175     0.06400
C1603       C  0.42829294  0.53319827  0.71192620     0.00200
H1604       H  0.35753107  0.52934312  0.67046807     0.07900
H1605       H  0.45549376  0.54261103  0.71862388     0.06900
N1606       N  0.27343522  0.53216586  0.76050999    -0.36900
N1607       N  0.27346721  0.54514983  0.78773746    -0.29100
C1608       C  0.23883003  0.55105800  0.79640160    -0.04300
C1609       C  0.21615810  0.54052543  0.77374267     0.04300
C1610       C  0.23881134  0.52845351  0.75142824     0.02400
H1611       H  0.23076803  0.56091988  0.81784131     0.07500
H1612       H  0.23078240  0.51846165  0.73000233     0.06300
O1613       O  0.60152296  0.97185854  0.48770111    -0.73700
O1614       O  0.60434781  0.50897169  0.57078792    -0.74700
O1615       O  0.55139237  0.99074792  0.53012814    -0.63300
O1616       O  0.65923492  0.98997342  0.52911553    -0.71700
O1617       O  0.65935966  0.56385742  0.51788428    -0.71300
O1618       O  0.55152568  0.56374454  0.51641199    -0.62500
O1619       O  0.60173604  0.58240889  0.55870121    -0.75000
O1620       O  0.60468479  0.04543670  0.97610396    -0.73800
Cu1621     Cu  0.60460835  0.98773815  0.52987987     1.04600
Cu1622     Cu  0.60481964  0.56642485  0.51683201     1.04300
C1623       C  0.60010186  0.00362436  0.96892932     0.92500
C1624       C  0.60002102  0.55099352  0.57763850     0.91600
C1625       C  0.53473930  0.02726897  0.52325393     0.83800
C1626       C  0.67638977  0.52692539  0.52359696     0.90000
O1627       O  0.42595498  0.04533650  0.97608485    -0.74500
O1628       O  0.42890316  0.58229922  0.55868549    -0.74700
O1629       O  0.47911302  0.56370030  0.51639921    -0.63300
O1630       O  0.37127920  0.56369594  0.51786103    -0.71700
O1631       O  0.37135899  0.98981298  0.52909171    -0.71300
O1632       O  0.47921365  0.99070564  0.53011904    -0.62500
O1633       O  0.42624805  0.50885921  0.57076985    -0.75000
O1634       O  0.42908241  0.97176175  0.48768331    -0.73800
Cu1635     Cu  0.42582111  0.56631951  0.51681427     1.04600
Cu1636     Cu  0.42599178  0.98763371  0.52986200     1.04300
C1637       C  0.43052124  0.00352869  0.96891141     0.92500
C1638       C  0.43058976  0.55088433  0.57762290     0.91600
C1639       C  0.49588325  0.02724529  0.52324786     0.83800
C1640       C  0.35422461  0.52675230  0.52357262     0.90000
C1641       C  0.59606805  0.00763677  0.88771031     0.85700
C1642       C  0.59932861  0.95616173  0.88424765    -0.54500
C1643       C  0.58160434  0.93051285  0.90452966     0.08600
C1644       C  0.56183681  0.96078001  0.92706549     0.19600
C1645       C  0.55527627  0.01692063  0.88894723    -0.55200
C1646       C  0.53607347  0.99194363  0.90886048     0.08700
C1647       C  0.60971725  0.01777199  0.91770039    -0.54800
C1648       C  0.59239813  0.99343082  0.93855519     0.09300
H1649       H  0.61464139  0.94244730  0.86644101     0.13800
H1650       H  0.54760132  0.94150599  0.94414986    -0.00400
H1651       H  0.54340821  0.04086868  0.87405045     0.14100
H1652       H  0.63082474  0.04282132  0.92221288     0.13900
C1653       C  0.59607370  0.55411867  0.65900753     0.85700
C1654       C  0.59941298  0.60591918  0.66005420    -0.54500
C1655       C  0.58153196  0.62910721  0.63871969     0.08600
C1656       C  0.56156538  0.59630634  0.61783584     0.19600
C1657       C  0.55526454  0.54474461  0.65843370    -0.55200
C1658       C  0.53599569  0.56733557  0.63750644     0.08700
C1659       C  0.60942967  0.54042589  0.62942934    -0.54800
C1660       C  0.59193103  0.56246949  0.60770129     0.09300
H1661       H  0.61497792  0.62170949  0.67704098     0.13800
H1662       H  0.54723604  0.61357790  0.59999072    -0.00400
H1663       H  0.54341810  0.52257947  0.67440373     0.14100
H1664       H  0.63070014  0.51524477  0.62587707     0.13900
N1665       N  0.66028410  0.54602853  0.83294785    -0.28100
N1666       N  0.63001807  0.54188622  0.81793708    -0.35900
C1667       C  0.60220515  0.03354674  0.83574894     0.00300
C1668       C  0.61511448  0.03245859  0.86364400     0.06300
C1669       C  0.65238138  0.03981106  0.86089690    -0.06800
H1670       H  0.57530448  0.02358026  0.82862339     0.07000
H1671       H  0.67264432  0.03621960  0.87758012     0.08200
Cu1672     Cu  0.62838552  0.53596765  0.77395656     0.44200
Cu1673     Cu  0.71090839  0.55048675  0.81322398     0.42000
Cu1674     Cu  0.71100648  0.52270692  0.73541652     0.43900
N1675       N  0.63014493  0.52776670  0.73011344    -0.35500
N1676       N  0.66056549  0.52339846  0.71535138    -0.29700
C1677       C  0.65272412  0.52665013  0.68720374    -0.05800
C1678       C  0.61533678  0.53229666  0.68407369     0.06400
C1679       C  0.60227198  0.53344052  0.71195010     0.00200
H1680       H  0.67300471  0.52940727  0.67046933     0.07900
H1681       H  0.57508857  0.54288586  0.71864866     0.06900
N1682       N  0.75715801  0.53199434  0.76048904    -0.36900
N1683       N  0.75715432  0.54486281  0.78773719    -0.29100
C1684       C  0.79179986  0.55065906  0.79641699    -0.04300
C1685       C  0.81444881  0.54017484  0.77374549     0.04300
C1686       C  0.79177503  0.52825082  0.75140410     0.02400
H1687       H  0.79987871  0.56045191  0.81786768     0.07500
H1688       H  0.79978528  0.51836834  0.72995645     0.06300
C1689       C  0.59609110  0.80406299  0.88291765     0.85700
C1690       C  0.60944763  0.79035153  0.91248956    -0.54500
C1691       C  0.59195989  0.81239739  0.93423005     0.08600
C1692       C  0.56160345  0.84625544  0.92411333     0.19600
C1693       C  0.55527703  0.79471388  0.88349248    -0.55200
C1694       C  0.53602081  0.81729706  0.90443929     0.08700
C1695       C  0.59944638  0.85586041  0.88189474    -0.54800
C1696       C  0.58156927  0.87905443  0.90323563     0.09300
H1697       H  0.63070895  0.76515647  0.91602853     0.13800
H1698       H  0.54728373  0.86353263  0.94196674    -0.00400
H1699       H  0.54341944  0.77257344  0.86750748     0.14100
H1700       H  0.61501164  0.87164387  0.86491084     0.13900
C1701       C  0.59608055  0.75770078  0.65421511     0.85700
C1702       C  0.60972675  0.76778244  0.62422110    -0.54500
C1703       C  0.59239521  0.74342113  0.60337452     0.08600
C1704       C  0.56182417  0.71080350  0.61487791     0.19600
C1705       C  0.55529031  0.76700425  0.65297991    -0.55200
C1706       C  0.53607358  0.74199657  0.63308241     0.08700
C1707       C  0.59932423  0.70622718  0.65769250    -0.54800
C1708       C  0.58158527  0.68056083  0.63741924     0.09300
H1709       H  0.63084142  0.79281444  0.61969952     0.13800
H1710       H  0.54757787  0.69151511  0.59780014    -0.00400
H1711       H  0.54343261  0.79098454  0.66786880     0.14100
H1712       H  0.61463568  0.69252529  0.67549983     0.13900
N1713       N  0.66031215  0.79619665  0.70895722    -0.28100
N1714       N  0.63005097  0.79205192  0.72397339    -0.35900
C1715       C  0.60223670  0.78367212  0.70616843     0.00300
C1716       C  0.61513715  0.78255433  0.67827211     0.06300
C1717       C  0.65240281  0.78993685  0.68101013    -0.06800
H1718       H  0.57534314  0.77369351  0.71330085     0.07000
H1719       H  0.67266179  0.78633773  0.66432346     0.08200
Cu1720     Cu  0.62841743  0.78613415  0.76795198     0.44200
Cu1721     Cu  0.71094274  0.80069955  0.72867752     0.42000
Cu1722     Cu  0.71100543  0.77272253  0.80646192     0.43900
N1723       N  0.63015207  0.77781340  0.81178520    -0.35500
N1724       N  0.66056915  0.77338281  0.82654198    -0.29700
C1725       C  0.65272768  0.77657586  0.85469415    -0.05800
C1726       C  0.61534191  0.78224966  0.85783207     0.06400
C1727       C  0.60228065  0.78346645  0.82995510     0.00200
H1728       H  0.67300972  0.77928542  0.87143121     0.07900
H1729       H  0.57510435  0.79295791  0.82326729     0.06900
N1730       N  0.75716536  0.78210220  0.78141057    -0.36900
N1731       N  0.75717655  0.79504913  0.75418041    -0.29100
C1732       C  0.79182819  0.80087416  0.74552233    -0.04300
C1733       C  0.81446471  0.79032502  0.76818751     0.04300
C1734       C  0.79177724  0.77833432  0.79050230     0.02400
H1735       H  0.79992025  0.81071729  0.72408679     0.07500
H1736       H  0.79977508  0.76838090  0.81193698     0.06300
O1737       O  0.10435755  0.80847510  0.72123506    -0.73700
O1738       O  0.10156759  0.84557731  0.80431695    -0.74700
O1739       O  0.15926305  0.82751624  0.76289192    -0.63300
O1740       O  0.05141561  0.82663641  0.76189592    -0.71700
O1741       O  0.05151116  0.75364072  0.77561387    -0.71300
O1742       O  0.15934466  0.75363195  0.77412108    -0.62500
O1743       O  0.10468818  0.77200471  0.81592158    -0.75000
O1744       O  0.10169892  0.73503329  0.73331453    -0.73800
Cu1745     Cu  0.10463523  0.82970087  0.76213959     1.04600
Cu1746     Cu  0.10480284  0.75101461  0.77518715     1.04300
C1747       C  0.10000671  0.76645266  0.71437999     0.92500
C1748       C  0.10012902  0.81381620  0.82309240     0.91600
C1749       C  0.17639695  0.79057462  0.76840235     0.83800
C1750       C  0.03474363  0.79009725  0.76876367     0.90000
O1751       O  0.92889584  0.73495312  0.73327465    -0.73700
O1752       O  0.92592688  0.77190522  0.81587550    -0.74700
O1753       O  0.87126068  0.75350116  0.77407712    -0.63300
O1754       O  0.97909633  0.75360044  0.77558061    -0.71700
O1755       O  0.97923969  0.82659608  0.76186253    -0.71300
O1756       O  0.87139595  0.82738820  0.76285487    -0.62500
O1757       O  0.92910625  0.84548395  0.80428333    -0.75000
O1758       O  0.92628541  0.80839186  0.72119178    -0.73800
Cu1759     Cu  0.92580169  0.75092718  0.77514509     1.04600
Cu1760     Cu  0.92602351  0.82961503  0.76210198     1.04300
C1761       C  0.93060531  0.76637037  0.71433828     0.92500
C1762       C  0.93052368  0.81371402  0.82305286     0.91600
C1763       C  0.85423534  0.79043494  0.76835907     0.83800
C1764       C  0.99588774  0.79007521  0.76874502     0.90000
C1765       C  0.93457724  0.80970051  0.90427257     0.85700
C1766       C  0.92092797  0.79955774  0.87428360    -0.54500
C1767       C  0.93824256  0.82389808  0.85342667     0.08600
C1768       C  0.96880421  0.85655281  0.86491260     0.19600
C1769       C  0.97537092  0.80042357  0.90303528    -0.55200
C1770       C  0.99457260  0.82540577  0.88312275     0.08700
C1771       C  0.93131391  0.86117865  0.90773171    -0.54800
C1772       C  0.94903702  0.88682175  0.88744527     0.09300
H1773       H  0.89982038  0.77450794  0.86977317     0.13800
H1774       H  0.98303810  0.87582121  0.84782523    -0.00400
H1775       H  0.98724072  0.77648259  0.91793564     0.14100
H1776       H  0.91600498  0.87490164  0.92553823     0.13900
C1777       C  0.93452010  0.76324771  0.63296663     0.85700
C1778       C  0.92117879  0.77694766  0.66254805    -0.54500
C1779       C  0.93867863  0.75489448  0.68427312     0.08600
C1780       C  0.96902995  0.72104311  0.67413368     0.19600
C1781       C  0.97533475  0.77259875  0.63353369    -0.55200
C1782       C  0.99460159  0.75000787  0.65446315     0.08700
C1783       C  0.93116433  0.71144891  0.63192339    -0.54800
C1784       C  0.94905065  0.68825026  0.65325207     0.09300
H1785       H  0.89991749  0.80213933  0.66610435     0.13800
H1786       H  0.98335880  0.70376216  0.69197573    -0.00400
H1787       H  0.98718526  0.79475574  0.61756113     0.14100
H1788       H  0.91558626  0.69566897  0.61494057     0.13900
N1789       N  0.87037150  0.77116932  0.95901878    -0.28100
N1790       N  0.90062187  0.77539849  0.97404018    -0.35900
C1791       C  0.92843120  0.78381721  0.95623952     0.00300
C1792       C  0.91553715  0.78487195  0.92834075     0.06300
C1793       C  0.87828076  0.77741374  0.93107237    -0.06800
H1794       H  0.95531233  0.79385014  0.96337434     0.07000
H1795       H  0.85802240  0.78093953  0.91438016     0.08200
Cu1796     Cu  0.90222206  0.78133694  0.51801869     0.44200
Cu1797     Cu  0.81974283  0.76655914  0.97873187     0.42000
Cu1798     Cu  0.81960164  0.79461196  0.55651605     0.43900
N1799       N  0.90045742  0.78959877  0.56185583    -0.35500
N1800       N  0.87003286  0.79397669  0.57661095    -0.29700
C1801       C  0.87786903  0.79073287  0.60476153    -0.05800
C1802       C  0.91525754  0.78507961  0.60789898     0.06400
C1803       C  0.92832582  0.78392794  0.58002360     0.00200
H1804       H  0.85758458  0.78797396  0.62149290     0.07900
H1805       H  0.95550728  0.77446711  0.57332870     0.06900
N1806       N  0.77346525  0.78515078  0.53144122    -0.36900
N1807       N  0.77348453  0.77217064  0.00421327    -0.29100
C1808       C  0.73884308  0.76630705  0.99553657    -0.04300
C1809       C  0.71617966  0.77686322  0.01818729     0.04300
C1810       C  0.73884264  0.78890184  0.54051207     0.02400
H1811       H  0.73077545  0.75644852  0.97409507     0.07500
H1812       H  0.73082009  0.79888976  0.56193768     0.06300
C1813       C  0.93451862  0.01329199  0.90899318     0.85700
C1814       C  0.93118067  0.96149267  0.91004949    -0.54500
C1815       C  0.94907318  0.93827829  0.88872550     0.08600
C1816       C  0.96904250  0.97105500  0.86783644     0.19600
C1817       C  0.97532804  0.02266895  0.90842491    -0.55200
C1818       C  0.99460495  0.00005606  0.88750532     0.08700
C1819       C  0.92117056  0.52694498  0.87941016    -0.54800
C1820       C  0.93867600  0.50487530  0.85768867     0.09300
H1821       H  0.91560860  0.94572259  0.92703500     0.13800
H1822       H  0.98337873  0.95376173  0.84999791    -0.00400
H1823       H  0.98716879  0.04485837  0.92439098     0.14100
H1824       H  0.89990046  0.55212095  0.87585010     0.13900
C1825       C  0.93455082  0.55966943  0.63769224     0.85700
C1826       C  0.93128303  0.61114424  0.63424881    -0.54500
C1827       C  0.94900581  0.63679263  0.65453836     0.08600
C1828       C  0.96877367  0.60652546  0.67706628     0.19600
C1829       C  0.97534535  0.55039699  0.63892644    -0.55200
C1830       C  0.99454472  0.57537529  0.65884997     0.08700
C1831       C  0.92090152  0.54952282  0.66767812    -0.54800
C1832       C  0.93821563  0.57386217  0.68854347     0.09300
H1833       H  0.91597425  0.62486068  0.61644468     0.13800
H1834       H  0.98300559  0.62579899  0.69415847    -0.00400
H1835       H  0.98721708  0.52646007  0.62401729     0.14100
H1836       H  0.89979743  0.52446793  0.67218009     0.13900
N1837       N  0.87034010  0.52125943  0.58291627    -0.28100
N1838       N  0.90059609  0.52546921  0.56790182    -0.35900
C1839       C  0.92840934  0.53382114  0.58571336     0.00300
C1840       C  0.91551100  0.53485289  0.61361247     0.06300
C1841       C  0.87824890  0.52745024  0.61086883    -0.06800
H1842       H  0.95529815  0.54383627  0.57858979     0.07000
H1843       H  0.85798954  0.53098721  0.62756042     0.08200
Cu1844     Cu  0.90220173  0.53146165  0.52392793     0.44200
Cu1845     Cu  0.81971514  0.51674066  0.56319377     0.42000
Cu1846     Cu  0.81957701  0.54463744  0.48540128     0.43900
N1847       N  0.90043798  0.53969621  0.98009168    -0.35500
N1848       N  0.87001519  0.04403184  0.96533054    -0.29700
C1849       C  0.87785857  0.04077009  0.93718242    -0.05800
C1850       C  0.91524901  0.03514599  0.93405216     0.06400
C1851       C  0.92831342  0.53403311  0.96192862     0.00200
H1852       H  0.85757923  0.03797338  0.92044891     0.07900
H1853       H  0.95549759  0.52459717  0.96862763     0.06900
N1854       N  0.77344256  0.53525217  0.51047645    -0.36900
N1855       N  0.77346065  0.52234819  0.53771443    -0.29100
C1856       C  0.73881953  0.51652960  0.54639848    -0.04300
C1857       C  0.71615921  0.52703490  0.52374098     0.04300
C1858       C  0.73882120  0.03899398  0.50140351     0.02400
H1859       H  0.73075104  0.50672205  0.56784595     0.07500
H1860       H  0.73079960  0.04891562  0.97996842     0.06300
O1861       O  0.10170192  0.48508363  0.80867813    -0.73700
O1862       O  0.10466078  0.52200412  0.72607374    -0.74700
O1863       O  0.15933335  0.50367106  0.76786220    -0.63300
O1864       O  0.05150200  0.50365017  0.76638524    -0.71700
O1865       O  0.05138870  0.57665585  0.78010389    -0.71300
O1866       O  0.15924576  0.57755744  0.77910612    -0.62500
O1867       O  0.10153729  0.59558400  0.73768101    -0.75000
O1868       O  0.10434108  0.55853234  0.82076509    -0.73800
Cu1869     Cu  0.10479160  0.50104029  0.76680565     1.04600
Cu1870     Cu  0.10461196  0.57973339  0.77985970     1.04300
C1871       C  0.10000514  0.51651107  0.82761672     0.92500
C1872       C  0.10009704  0.56380970  0.71890440     0.91600
C1873       C  0.17638403  0.54061614  0.77358844     0.83800
C1874       C  0.03472555  0.54010633  0.77323246     0.90000
O1875       O  0.97909672  0.50357963  0.76639077    -0.73700
O1876       O  0.87126436  0.50339495  0.76786114    -0.74700
O1877       O  0.92593915  0.52184681  0.72607996    -0.63300
O1878       O  0.92889528  0.48489944  0.80868057    -0.71700
O1879       O  0.92625104  0.55834006  0.82077505    -0.71300
O1880       O  0.92906540  0.59542846  0.73769501    -0.62500
O1881       O  0.87135781  0.57728139  0.77910768    -0.75000
O1882       O  0.97920362  0.57658100  0.78011909    -0.73800
Cu1883     Cu  0.92580662  0.50086640  0.76680886     1.04600
Cu1884     Cu  0.92598430  0.57955655  0.77987089     1.04300
C1885       C  0.99586977  0.54006693  0.77323839     0.92500
C1886       C  0.85421844  0.54031499  0.77358573     0.91600
C1887       C  0.93050686  0.56366192  0.71891520     0.83800
C1888       C  0.93059363  0.51632502  0.82762245     0.90000
C1889       C  0.09607996  0.80990417  0.90431951     0.85700
C1890       C  0.09934726  0.86138941  0.90775013    -0.54500
C1891       C  0.08162456  0.88697869  0.88745362     0.08600
C1892       C  0.06186235  0.85664685  0.86492996     0.19600
C1893       C  0.05528474  0.80056524  0.90308432    -0.55200
C1894       C  0.03609030  0.82547074  0.88314485     0.08700
C1895       C  0.10973277  0.79973745  0.87433527    -0.54800
C1896       C  0.09242149  0.82402354  0.85346369     0.09300
H1897       H  0.11465326  0.87515811  0.92555192     0.13800
H1898       H  0.04763319  0.87587218  0.84783144    -0.00400
H1899       H  0.04340993  0.77664093  0.91800515     0.14100
H1900       H  0.13083610  0.77471114  0.86983889     0.13900
C1901       C  0.09610709  0.76341084  0.63301263     0.85700
C1902       C  0.09944881  0.71161582  0.63194168    -0.54500
C1903       C  0.08155468  0.68836929  0.65325918     0.08600
C1904       C  0.06157276  0.72110953  0.67414978     0.19600
C1905       C  0.05529610  0.77271459  0.63357576    -0.55200
C1906       C  0.03601424  0.75005741  0.65448128     0.08700
C1907       C  0.10944213  0.77708647  0.66260161    -0.54800
C1908       C  0.09193063  0.75498690  0.68431203     0.09300
H1909       H  0.11502789  0.69587449  0.61495457     0.13800
H1910       H  0.04723270  0.70379082  0.69198070    -0.00400
H1911       H  0.04345822  0.79489341  0.61762019     0.14100
H1912       H  0.13071010  0.80229954  0.66617360     0.13900
N1913       N  0.16026144  0.77153515  0.95910381    -0.28100
N1914       N  0.13001814  0.77581664  0.97412218    -0.35900
C1915       C  0.10221565  0.78418272  0.95631423     0.00300
C1916       C  0.11510629  0.78515066  0.92841274     0.06300
C1917       C  0.15235541  0.77769683  0.93114997    -0.06800
H1918       H  0.07534452  0.79423172  0.96343906     0.07000
H1919       H  0.17261491  0.78115908  0.91445067     0.08200
Cu1920     Cu  0.12843165  0.78183481  0.51809534     0.44200
Cu1921     Cu  0.21088020  0.76691905  0.97882999     0.42000
Cu1922     Cu  0.21108014  0.79488436  0.55662817     0.43900
N1923       N  0.13020898  0.78997749  0.56193894    -0.35500
N1924       N  0.16063957  0.79426541  0.57670282    -0.29700
C1925       C  0.15279396  0.79093221  0.60484689    -0.05800
C1926       C  0.11539619  0.78531039  0.60797283     0.06400
C1927       C  0.10232793  0.78427194  0.58009608     0.00200
H1928       H  0.17307112  0.78808413  0.62157571     0.07900
H1929       H  0.07513239  0.77485921  0.57338530     0.06900
N1930       N  0.25719603  0.78539678  0.53155048    -0.36900
N1931       N  0.25715053  0.77245288  0.00431572    -0.29100
C1932       C  0.29178071  0.76655525  0.99563596    -0.04300
C1933       C  0.31446479  0.77704954  0.01829222     0.04300
C1934       C  0.29182571  0.78908872  0.54062351     0.02400
H1935       H  0.29982928  0.75671360  0.97418943     0.07500
H1936       H  0.29986764  0.79903749  0.56205429     0.06300
C1937       C  0.09610553  0.01349334  0.90898755     0.85700
C1938       C  0.10943853  0.52716843  0.87940079    -0.54500
C1939       C  0.09193612  0.50505246  0.85768442     0.08600
C1940       C  0.06158891  0.97116204  0.86783848     0.19600
C1941       C  0.05528968  0.02277283  0.90842270    -0.55200
C1942       C  0.03601855  0.00010643  0.88750630     0.08700
C1943       C  0.09946363  0.96170096  0.91004725    -0.54800
C1944       C  0.08157568  0.93843777  0.88872695     0.09300
H1945       H  0.13069771  0.55239265  0.87583480     0.13800
H1946       H  0.04725677  0.95382886  0.85000374    -0.00400
H1947       H  0.04344181  0.04494286  0.92438528     0.14100
H1948       H  0.11504612  0.94597359  0.92703262     0.13900
C1949       C  0.09605790  0.55982020  0.63767821     0.85700
C1950       C  0.10970396  0.54968299  0.66766443    -0.54500
C1951       C  0.09239011  0.57399093  0.68853207     0.08600
C1952       C  0.06183413  0.60660560  0.67705910     0.19600
C1953       C  0.05526095  0.55048665  0.63890960    -0.55200
C1954       C  0.03606310  0.57541826  0.65884201     0.08700
C1955       C  0.09932871  0.61130273  0.63424338    -0.54800
C1956       C  0.08160177  0.63691263  0.65453503     0.09300
H1957       H  0.13080556  0.52465988  0.67216528     0.13800
H1958       H  0.04760242  0.62584818  0.69415443    -0.00400
H1959       H  0.04338754  0.52654703  0.62399017     0.14100
H1960       H  0.11463992  0.62505493  0.61644327     0.13900
N1961       N  0.16024428  0.52136020  0.58290530    -0.28100
N1962       N  0.13001025  0.52568348  0.56788083    -0.35900
C1963       C  0.10220686  0.53408428  0.58568329     0.00300
C1964       C  0.11508480  0.53503975  0.61358784     0.06300
C1965       C  0.15232991  0.52753464  0.61085942    -0.06800
H1966       H  0.07534859  0.54417320  0.57855399     0.07000
H1967       H  0.17258454  0.53097227  0.62756544     0.08200
Cu1968     Cu  0.12843449  0.53175497  0.52391269     0.44200
Cu1969     Cu  0.21086935  0.51668452  0.56318449     0.42000
Cu1970     Cu  0.21106279  0.04487341  0.48541456     0.43900
N1971       N  0.13019713  0.54000617  0.48007911    -0.35500
N1972       N  0.16062828  0.04432229  0.96532142    -0.29700
C1973       C  0.15278409  0.04102977  0.93717326    -0.05800
C1974       C  0.11538569  0.03540223  0.93403880     0.06400
C1975       C  0.10231742  0.03432480  0.96191557     0.00200
H1976       H  0.17306337  0.03819658  0.92044425     0.07900
H1977       H  0.07512541  0.52488467  0.96861743     0.06900
N1978       N  0.25717845  0.03525629  0.51047611    -0.36900
N1979       N  0.25713645  0.52222517  0.53769108    -0.29100
C1980       C  0.29176874  0.51628438  0.54635540    -0.04300
C1981       C  0.31445030  0.02684338  0.52371146     0.04300
C1982       C  0.29180689  0.03896430  0.50140396     0.02400
H1983       H  0.29982133  0.50638967  0.56778835     0.07500
H1984       H  0.29984576  0.04899533  0.47999051     0.06300
loop_ 
_geom_bond_atom_site_label_1 
_geom_bond_atom_site_label_2 
_geom_bond_distance 
_geom_bond_site_symmetry_2 
_ccdc_geom_bond_type 
O1           Cu9   1.996       .  S
O1           C11   1.278       .  A
O2         Cu505   2.011       .  S
O2           C12   1.276       .  A
O3           Cu9   1.959       .  S
O3          C509   1.272       .  A
O4           Cu9   2.005       .  S
O4           C14   1.276       .  A
O5          Cu10   2.008       .  S
O5          C510   1.277       .  A
O6          Cu10   1.956       .  S
O6           C13   1.272       .  A
O7          Cu10   2.007       .  S
O7           C12   1.280       .  A
O8         Cu506   2.025       .  S
O8           C11   1.278       .  A
Cu9         O498   2.011   1_554  S
Cu9        Cu506   2.380       .  S
Cu10        O504   2.025       .  S
Cu10       Cu505   2.380       .  S
C11         C215   1.475       .  S
C12         C203   1.472       .  S
C13         O499   1.272       .  A
C13          C28   1.427       .  S
C14         O501   1.277       .  A
C14         C817   1.461       .  S
O15         Cu23   2.006       .  S
O15          C25   1.279       .  A
O16        Cu519   2.024       .  S
O16          C26   1.278       .  A
O17         Cu23   2.007       .  S
O17          C27   1.277       .  A
O18         Cu23   1.956       .  S
O18          C28   1.272       .  A
O19         Cu24   1.959       .  S
O19         C524   1.272       .  A
O20         Cu24   2.005       .  S
O20         C523   1.276       .  A
O21         Cu24   1.996       .  S
O21          C26   1.279       .  A
O22        Cu520   2.011       .  S
O22          C25   1.276       .  A
Cu23        O512   2.024       .  S
Cu23       Cu520   2.380       .  S
Cu24        O518   2.011   1_554  S
Cu24       Cu519   2.380       .  S
C25          C36   1.472       .  S
C26          C48   1.475       .  S
C27         O516   1.276       .  A
C27         C445   1.461       .  S
C28         O515   1.272       .  A
C29          C30   1.520       .  S
C29          C35   1.518       .  S
C29          C33   1.523       .  S
C29          C66   1.508       .  S
C30          H37   1.080       .  S
C30          C31   1.372       .  D
C31          C32   1.551       .  S
C31          C84   1.506       .  S
C32          C36   1.564       .  S
C32          C34   1.562       .  S
C32          H38   1.107       .  S
C33          H39   1.079       .  S
C33          C34   1.375       .  D
C34         C206   1.521       .  S
C35          H40   1.086       .  S
C35          C36   1.362       .  D
C41          C42   1.518       .  S
C41          C47   1.515       .  S
C41          C45   1.524       .  S
C41          C56   1.509       .  S
C42          H49   1.080       .  S
C42          C43   1.371       .  D
C43          C44   1.554       .  S
C43          C96   1.506       .  S
C44          C48   1.567       .  S
C44          C46   1.564       .  S
C44          H50   1.107       .  S
C45          H51   1.079       .  S
C45          C46   1.376       .  D
C46         C218   1.525       .  S
C47          H52   1.087       .  S
C47          C48   1.363       .  D
N53          N54   1.319       .  A
N53          C57   1.348       .  A
N53         Cu61   2.079       .  S
N54          C55   1.339       .  A
N54         Cu60   2.059       .  S
C55          C56   1.385       .  A
C55          H58   1.082       .  S
C56          C57   1.391       .  A
C57          H59   1.082       .  S
Cu60         N63   2.060       .  S
Cu61         N71   2.080       .  S
Cu62         N64   2.075       .  S
Cu62         N70   2.077       .  S
N63          N64   1.318       .  A
N63          C67   1.339       .  A
N64          C65   1.347       .  A
C65          C66   1.391       .  A
C65          H68   1.082       .  S
C66          C67   1.386       .  A
C67          H69   1.082       .  S
N70          N71   1.325       .  A
N70          C74   1.344       .  A
N71          C72   1.346       .  A
C72          C73   1.380       .  A
C72          H75   1.082       .  S
C73         C261   1.460       .  S
C73          C74   1.378       .  A
C74          H76   1.082       .  S
C77          C78   1.515       .  S
C77          C83   1.519       .  S
C77          C81   1.524       .  S
C77         C104   1.509       .  S
C78          H85   1.087       .  S
C78          C79   1.363       .  D
C79         C149   1.475       .  S
C79          C80   1.567       .  S
C80          C84   1.554       .  S
C80          C82   1.564       .  S
C80          H86   1.107       .  S
C81          H87   1.079       .  S
C81          C82   1.376       .  D
C82         C158   1.525       .  S
C83          H88   1.080       .  S
C83          C84   1.371       .  D
C89          C90   1.518       .  S
C89          C95   1.520       .  S
C89          C93   1.524       .  S
C89         C114   1.509       .  S
C90          H97   1.086       .  S
C90          C91   1.362       .  D
C91         C150   1.472       .  S
C91          C92   1.564       .  S
C92          C96   1.551       .  S
C92          C94   1.562       .  S
C92          H98   1.107       .  S
C93          H99   1.079       .  S
C93          C94   1.375       .  D
C94         C170   1.521       .  S
C95         H100   1.080       .  S
C95          C96   1.372       .  D
N101        N102   1.319       .  A
N101       C1097   1.348       .  A
N101       Cu109   2.079       .  S
N102        C103   1.339       .  A
N102       Cu108   2.059       .  S
C103       C1096   1.385       .  A
C103       H1098   1.082       .  S
C104        C105   1.391       .  A
C104       C1095   1.385       .  A
C105       N1093   1.348       .  A
C105        H107   1.082       .  S
H106       C1095   1.082       .  S
Cu108       N111   2.060       .  S
Cu109       N119   2.080       .  S
Cu110       N112   2.076       .  S
Cu110       N118   2.077       .  S
N111        N112   1.318       .  A
N111        C115   1.339       .  A
N112        C113   1.348       .  A
C113        C114   1.391       .  A
C113        H116   1.082       .  S
C114        C115   1.386       .  A
C115        H117   1.082       .  S
N118        N119   1.325       .  A
N118        C122   1.344       .  A
N119        C120   1.346       .  A
C120        C121   1.380       .  A
C120        H123   1.082       .  S
C121        C385   1.461       .  S
C121        C122   1.378       .  A
C122        H124   1.082       .  S
O125       Cu133   2.024   1_556  S
O125        C631   1.278       .  A
O126      Cu1125   2.006   1_545  S
O126        C136   1.280       .  A
O127       Cu133   1.956       .  S
O127        C137   1.272       .  A
O128       Cu133   2.007       .  S
O128       C1130   1.277       .  A
O129       Cu134   2.005       .  S
O129        C138   1.276       .  A
O130       Cu134   1.959       .  S
O130       C1129   1.272       .  A
O131       Cu134   2.011       .  S
O131        C136   1.276       .  A
O132      Cu1622   1.996       .  S
O132        C135   1.278       .  A
Cu133      O1118   2.006       .  S
Cu133     Cu1126   2.380       .  S
Cu134      O1620   1.996   1_554  S
Cu134     Cu1125   2.380   1_545  S
C135        O621   1.278       .  A
C135        C160   1.475       .  S
C136        C172   1.472       .  S
C137       O1122   1.272       .  A
C137        C151   1.427       .  S
C138       O1120   1.277   1_545  A
C138        C369   1.460       .  S
O139      Cu1635   1.996       .  S
O139        C149   1.278       .  A
O140       Cu147   2.011       .  S
O140        C150   1.276       .  A
O141       Cu147   1.959       .  S
O141       C1143   1.272       .  A
O142       Cu147   2.005       .  S
O142        C152   1.276       .  A
O143       Cu148   2.008       .  S
O143       C1144   1.277       .  A
O144       Cu148   1.956       .  S
O144        C151   1.272       .  A
O145      Cu1140   2.006   1_545  S
O145        C150   1.279       .  A
O146       Cu148   2.024   1_556  S
O146        C645   1.278       .  A
Cu147      O1627   1.996   1_554  S
Cu147     Cu1140   2.380   1_545  S
Cu148      O1137   2.006       .  S
Cu148     Cu1139   2.380       .  S
C149        O642   1.278       .  A
C151       O1133   1.272       .  A
C152       O1135   1.277   1_545  A
C152       C1485   1.461       .  S
C153        C154   1.519       .  S
C153        C159   1.515       .  S
C153        C157   1.524       .  S
C153        C180   1.509       .  S
C154        H161   1.080       .  S
C154        C155   1.371       .  D
C155        C156   1.554       .  S
C155        C208   1.506       .  S
C156        C160   1.567       .  S
C156        C158   1.565       .  S
C156        H162   1.107       .  S
C157        H163   1.079       .  S
C157        C158   1.376       .  D
C159        H164   1.087       .  S
C159        C160   1.363       .  D
C165        C166   1.520       .  S
C165        C171   1.518       .  S
C165        C169   1.523       .  S
C165        C190   1.508       .  S
C166        H173   1.080       .  S
C166        C167   1.372       .  D
C167        C168   1.551       .  S
C167        C220   1.506       .  S
C168        C172   1.564       .  S
C168        C170   1.562       .  S
C168        H174   1.107       .  S
C169        H175   1.079       .  S
C169        C170   1.375       .  D
C171        H176   1.086       .  S
C171        C172   1.362       .  D
N177        N178   1.319       .  A
N177       C1173   1.348       .  A
N177       Cu185   2.078       .  S
N178       C1171   1.339       .  A
N178       Cu184   2.059       .  S
C179       N1170   1.339       .  A
C179        C180   1.385       .  A
C179        H182   1.082       .  S
C180        C181   1.391       .  A
C181       N1169   1.348       .  A
C181        H183   1.082       .  S
Cu184       N187   2.060       .  S
Cu185       N195   2.080       .  S
Cu186       N188   2.075       .  S
Cu186       N194   2.077       .  S
N187        N188   1.318       .  A
N187        C191   1.339       .  A
N188        C189   1.347       .  A
C189        C190   1.391       .  A
C189        H192   1.082       .  S
C190        C191   1.386       .  A
C191        H193   1.082       .  S
N194        N195   1.325       .  A
N194        C198   1.344       .  A
N195        C196   1.346       .  A
C196        C197   1.380       .  A
C196        H199   1.082       .  S
C197        C398   1.460       .  S
C197        C198   1.378       .  A
C198        H200   1.082       .  S
C201        C202   1.518       .  S
C201        C207   1.520       .  S
C201        C205   1.524       .  S
C201        C238   1.509       .  S
C202        H209   1.086       .  S
C202        C203   1.363       .  D
C203        C204   1.564       .  S
C204        C208   1.551       .  S
C204        C206   1.562       .  S
C204        H210   1.107       .  S
C205        H211   1.079       .  S
C205        C206   1.375       .  D
C207        H212   1.080       .  S
C207        C208   1.372       .  D
C213        C214   1.515       .  S
C213        C219   1.519       .  S
C213        C217   1.524       .  S
C213        C228   1.509       .  S
C214        H221   1.087       .  S
C214        C215   1.363       .  D
C215        C216   1.567       .  S
C216        C220   1.554       .  S
C216        C218   1.565       .  S
C216        H222   1.107       .  S
C217        H223   1.079       .  S
C217        C218   1.376       .  D
C219        H224   1.080       .  S
C219        C220   1.371       .  D
N225        N226   1.319       .  A
N225        C229   1.348       .  A
N225       Cu233   2.078       .  S
N226        C227   1.339       .  A
N226       Cu232   2.059       .  S
C227        C228   1.385       .  A
C227        H230   1.082       .  S
C228        C229   1.391       .  A
C229        H231   1.082       .  S
Cu232       N235   2.060       .  S
Cu233       N243   2.080       .  S
Cu234       N236   2.076       .  S
Cu234       N242   2.077       .  S
N235        N236   1.318       .  A
N235        C239   1.339       .  A
N236        C237   1.348       .  A
C237        C238   1.391       .  A
C237        H240   1.082       .  S
C238        C239   1.386       .  A
C239        H241   1.082       .  S
N242        N243   1.325       .  A
N242        C246   1.344       .  A
N243        C244   1.346       .  A
C244        C245   1.380       .  A
C244        H247   1.082       .  S
C245        C275   1.460       .  S
C245        C246   1.378       .  A
C246        H248   1.082       .  S
O249       Cu257   2.006       .  S
O249        C259   1.279       .  A
O250       Cu257   2.024       .  S
O250        C260   1.278       .  A
O251       Cu257   2.007       .  S
O251        C261   1.277       .  A
O252       Cu257   1.956       .  S
O252        C262   1.272       .  A
O253       Cu258   1.959       .  S
O253        C262   1.272       .  A
O254       Cu258   2.005       .  S
O254        C261   1.276       .  A
O255       Cu258   1.996       .  S
O255        C260   1.279       .  A
O256       Cu258   2.011       .  S
O256        C259   1.276       .  A
Cu257      Cu258   2.380       .  S
C259        C420   1.472       .  S
C260        C408   1.475       .  S
C262        C276   1.427   1_455  S
O263       Cu271   2.011       .  S
O263        C273   1.276       .  A
O264       Cu271   1.996       .  S
O264        C274   1.278       .  A
O265       Cu271   2.005       .  S
O265        C275   1.276       .  A
O266       Cu271   1.959       .  S
O266        C276   1.272       .  A
O267       Cu272   1.956       .  S
O267        C276   1.272       .  A
O268       Cu272   2.007       .  S
O268        C275   1.277       .  A
O269       Cu272   2.024       .  S
O269        C274   1.278       .  A
O270       Cu272   2.006       .  S
O270        C273   1.280       .  A
Cu271      Cu272   2.380       .  S
C273        C291   1.472       .  S
C274        C279   1.475       .  S
C277        C278   1.515       .  S
C277        C283   1.519       .  S
C277        C281   1.524       .  S
C277        C304   1.509       .  S
C278        H285   1.087       .  S
C278        C279   1.363       .  D
C279        C280   1.567       .  S
C280        C284   1.554       .  S
C280        C282   1.565       .  S
C280        H286   1.107       .  S
C281        H287   1.079       .  S
C281        C282   1.376       .  D
C282        C406   1.525   1_655  S
C283        H288   1.080       .  S
C283        C284   1.371       .  D
C284        C327   1.506       .  S
C289        C290   1.518       .  S
C289        C295   1.520       .  S
C289        C293   1.524       .  S
C289        C314   1.509       .  S
C290        H297   1.086       .  S
C290        C291   1.363       .  D
C291        C292   1.564       .  S
C292        C296   1.551       .  S
C292        C294   1.562       .  S
C292        H298   1.107       .  S
C293        H299   1.079       .  S
C293        C294   1.375       .  D
C294        C418   1.521   1_655  S
C295        H300   1.080       .  S
C295        C296   1.372       .  D
C296        C339   1.506       .  S
N301        N302   1.319       .  A
N301        C305   1.348       .  A
N301       Cu309   2.078       .  S
N302        C303   1.339       .  A
N302       Cu804   2.059       .  S
C303        C304   1.385       .  A
C303        H306   1.082       .  S
C304        C305   1.391       .  A
C305        H307   1.082       .  S
Cu308       N311   2.060       .  S
Cu308       N798   2.059   1_554  S
Cu309       N319   2.080       .  S
Cu310       N312   2.076       .  S
Cu310       N318   2.077       .  S
N311        N312   1.318       .  A
N311        C315   1.339       .  A
N312        C313   1.348       .  A
C313        C314   1.391       .  A
C313        H316   1.082       .  S
C314        C315   1.386       .  A
C315        H317   1.082       .  S
N318        N815   1.325       .  A
N318        C322   1.344       .  A
N319        N814   1.325       .  A
N319        C320   1.346       .  A
C320        C321   1.380       .  A
C320        H323   1.082       .  S
C321        C510   1.461       .  S
C321        C818   1.378       .  A
C322        C817   1.378       .  A
C322        H324   1.082       .  S
C325        C326   1.520       .  S
C325        C329   1.524       .  S
C325       C1323   1.518       .  S
C325        C362   1.508       .  S
C326        H333   1.080       .  S
C326        C327   1.372       .  D
C327        C328   1.551       .  S
C328        C330   1.562       .  S
C328       C1324   1.564       .  S
C328        H334   1.107       .  S
C329        H335   1.079       .  S
C329        C330   1.375       .  D
C330        C454   1.521   1_655  S
C331       C1317   1.518       .  S
C331        H336   1.086       .  S
C331        C332   1.362       .  D
C332        C400   1.472       .  S
C332       C1320   1.564   1_545  S
C337        C338   1.519       .  S
C337        C343   1.515       .  S
C337        C341   1.524       .  S
C337        C352   1.509       .  S
C338        H345   1.080       .  S
C338        C339   1.371       .  D
C339        C340   1.554       .  S
C340        C344   1.567       .  S
C340        C342   1.565       .  S
C340        H346   1.107       .  S
C341        H347   1.079       .  S
C341        C342   1.376       .  D
C342        C466   1.525   1_655  S
C343        H348   1.087       .  S
C343        C344   1.363       .  D
C344        C399   1.475       .  S
N349        N350   1.319       .  A
N349        C353   1.348       .  A
N349       Cu357   2.078       .  S
N350        C351   1.339       .  A
N350       Cu356   2.059       .  S
C351        C352   1.385       .  A
C351        H354   1.082       .  S
C352        C353   1.391       .  A
C353        H355   1.082       .  S
Cu356       N855   2.060   1_554  S
Cu357       N367   2.080       .  S
Cu358       N366   2.077   1_556  S
Cu358      N1848   2.075       .  S
N359       N1352   1.318       .  A
N359        C363   1.339       .  A
N359       Cu852   2.060       .  S
N360       N1351   1.318       .  A
N360        C361   1.347       .  A
N360      Cu1846   2.075       .  S
C361        C362   1.391       .  A
C361        H364   1.082       .  S
C362       C1355   1.386       .  A
C363       C1354   1.386       .  A
C363        H365   1.082       .  S
N366        N367   1.325       .  A
N366       C1362   1.344       .  A
N367        C368   1.346       .  A
C368        C369   1.380       .  A
C368        H371   1.082       .  S
C369       C1362   1.378       .  A
C370       N1358   1.344       .  A
C370       C1361   1.378       .  A
C370        H868   1.082   1_554  S
H372        C866   1.082       .  S
O373       Cu381   2.011   1_565  S
O373        C383   1.276   1_565  A
O374       Cu381   1.996       .  S
O374        C384   1.279       .  A
O375       Cu381   2.005       .  S
O375        C385   1.276       .  A
O376       Cu381   1.958       .  S
O376        C386   1.272       .  A
O377       Cu382   1.956       .  S
O377        C386   1.272       .  A
O378       Cu382   2.008       .  S
O378        C385   1.277       .  A
O379       Cu382   2.024       .  S
O379        C384   1.278       .  A
O380       Cu382   2.006       .  S
O380        C383   1.279       .  A
Cu381      Cu382   2.380       .  S
C383        C451   1.472       .  S
C384        C463   1.475       .  S
C386        C397   1.427   1_455  S
O387       Cu395   1.959       .  S
O387        C397   1.272       .  A
O388       Cu395   2.005       .  S
O388        C398   1.276       .  A
O389       Cu395   1.996       .  S
O389        C399   1.279       .  A
O390       Cu395   2.011   1_565  S
O390        C400   1.276   1_565  A
O391       Cu396   2.006       .  S
O391        C400   1.279       .  A
O392       Cu396   2.024       .  S
O392        C399   1.278       .  A
O393       Cu396   2.007       .  S
O393        C398   1.277       .  A
O394       Cu396   1.956       .  S
O394        C397   1.272       .  A
Cu395      Cu396   2.380       .  S
C401        C402   1.519       .  S
C401        C407   1.515       .  S
C401        C405   1.524       .  S
C401        C428   1.509       .  S
C402        H409   1.080       .  S
C402        C403   1.371       .  D
C403        C404   1.554       .  S
C403        C456   1.506       .  S
C404        C408   1.567       .  S
C404        C406   1.564       .  S
C404        H410   1.107       .  S
C405        H411   1.079       .  S
C405        C406   1.376       .  D
C407        H412   1.087       .  S
C407        C408   1.363       .  D
C413        C414   1.520       .  S
C413        C419   1.518       .  S
C413        C417   1.524       .  S
C413        C438   1.508       .  S
C414        H421   1.080       .  S
C414        C415   1.372       .  D
C415        C416   1.551       .  S
C415        C468   1.506       .  S
C416        C420   1.564       .  S
C416        C418   1.562       .  S
C416        H422   1.107       .  S
C417        H423   1.079       .  S
C417        C418   1.375       .  D
C419        H424   1.086       .  S
C419        C420   1.362       .  D
N425        N426   1.319       .  A
N425        C429   1.348       .  A
N425       Cu433   2.079       .  S
N426        C427   1.339       .  A
N426       Cu928   2.059       .  S
C427        C428   1.385       .  A
C427        H430   1.082       .  S
C428        C429   1.391       .  A
C429        H431   1.082       .  S
Cu432       N435   2.060       .  S
Cu432       N922   2.059   1_554  S
Cu433       N443   2.080       .  S
Cu434       N436   2.076       .  S
Cu434       N442   2.077       .  S
N435        N436   1.318       .  A
N435        C439   1.339       .  A
N436        C437   1.347       .  A
C437        C438   1.391       .  A
C437        H440   1.082       .  S
C438        C439   1.386       .  A
C439        H441   1.082       .  S
N442        N939   1.325       .  A
N442        C446   1.344       .  A
N443        N938   1.325       .  A
N443        C444   1.346       .  A
C444        C445   1.380       .  A
C444        H447   1.082       .  S
C445        C942   1.378       .  A
C446        C941   1.378       .  A
C446        H448   1.082       .  S
C449        C455   1.520       .  S
C449        C453   1.524       .  S
C449       C1442   1.518       .  S
C449        C486   1.509       .  S
C450       C1441   1.518       .  S
C450        H457   1.086       .  S
C450        C451   1.362       .  D
C451       C1444   1.564   1_545  S
C452        C456   1.551       .  S
C452        C454   1.562       .  S
C452       C1443   1.564       .  S
C452        H458   1.107       .  S
C453        H459   1.079       .  S
C453        C454   1.375       .  D
C455        H460   1.080       .  S
C455        C456   1.372       .  D
C461        C462   1.515       .  S
C461        C467   1.519       .  S
C461        C465   1.524       .  S
C461        C476   1.509       .  S
C462        H469   1.087       .  S
C462        C463   1.363       .  D
C463        C464   1.567       .  S
C464        C468   1.554       .  S
C464        C466   1.564       .  S
C464        H470   1.107       .  S
C465        H471   1.079       .  S
C465        C466   1.376       .  D
C467        H472   1.080       .  S
C467        C468   1.371       .  D
N473        N474   1.319       .  A
N473        C477   1.348       .  A
N473       Cu481   2.079       .  S
N474        C475   1.339       .  A
N474       Cu480   2.059       .  S
C475        C476   1.385       .  A
C475        H478   1.082       .  S
C476        C477   1.391       .  A
C477        H479   1.082       .  S
Cu480       N483   2.060   1_554  S
Cu481       N491   2.080       .  S
Cu482       N490   2.077   1_556  S
Cu482       N980   2.076       .  S
N483       N1972   1.318       .  A
N483       C1975   1.339       .  A
N484       N1971   1.318       .  A
N484        C485   1.348       .  A
N484       Cu978   2.076       .  S
C485        C486   1.391       .  A
C485        H488   1.082       .  S
C486        C487   1.386       .  A
C487       N1971   1.339       .  A
C487       H1481   1.082       .  S
H489       C1479   1.082       .  S
N490       N1483   1.325       .  A
N490        C494   1.344       .  A
N491       N1482   1.325       .  A
N491        C492   1.346       .  A
C492       C1485   1.380       .  A
C492        H495   1.082       .  S
C493       C1144   1.461       .  S
C493        C494   1.378       .  A
C493       C1484   1.380       .  A
C494        H496   1.082   1_554  S
O497       Cu505   1.996       .  S
O497        C507   1.278       .  A
O498        C508   1.276       .  A
O499       Cu505   1.959       .  S
O500       Cu505   2.005       .  S
O500        C510   1.276       .  A
O501       Cu506   2.008       .  S
O502       Cu506   1.956       .  S
O502        C509   1.272       .  A
O503       Cu506   2.007   1_556  S
O503        C508   1.280       .  A
O504        C507   1.278       .  A
C507        C711   1.475       .  S
C508        C699   1.472       .  S
C509        C524   1.427       .  S
O511       Cu519   2.006   1_556  S
O511        C521   1.279       .  A
O512        C522   1.278       .  A
O513       Cu519   2.007       .  S
O513        C523   1.277       .  A
O514       Cu519   1.956       .  S
O514        C524   1.272       .  A
O515       Cu520   1.959       .  S
O516       Cu520   2.005       .  S
O517       Cu520   1.996       .  S
O517        C522   1.279       .  A
O518        C521   1.276       .  A
C521        C532   1.472       .  S
C522        C544   1.475       .  S
C523        C941   1.461       .  S
C525        C526   1.520       .  S
C525        C531   1.518       .  S
C525        C529   1.523       .  S
C525        C562   1.508       .  S
C526        H533   1.080       .  S
C526        C527   1.372       .  D
C527        C528   1.551       .  S
C527        C580   1.506       .  S
C528        C532   1.564       .  S
C528        C530   1.562       .  S
C528        H534   1.107       .  S
C529        H535   1.079       .  S
C529        C530   1.375       .  D
C530        C702   1.521       .  S
C531        H536   1.086       .  S
C531        C532   1.362       .  D
C537        C538   1.518       .  S
C537        C543   1.515       .  S
C537        C541   1.524       .  S
C537        C552   1.509       .  S
C538        H545   1.080       .  S
C538        C539   1.371       .  D
C539        C540   1.554       .  S
C539        C592   1.506       .  S
C540        C544   1.567       .  S
C540        C542   1.564       .  S
C540        H546   1.107       .  S
C541        H547   1.079       .  S
C541        C542   1.376       .  D
C542        C714   1.525       .  S
C543        H548   1.087       .  S
C543        C544   1.363       .  D
N549        N550   1.319       .  A
N549        C553   1.348       .  A
N549       Cu557   2.079       .  S
N550        C551   1.339       .  A
N550       Cu556   2.059       .  S
C551        C552   1.385       .  A
C551        H554   1.082       .  S
C552        C553   1.391       .  A
C553        H555   1.082       .  S
Cu556       N559   2.060       .  S
Cu557       N567   2.080       .  S
Cu558       N560   2.075       .  S
Cu558       N566   2.077       .  S
N559        N560   1.318       .  A
N559        C563   1.339       .  A
N560        C561   1.347       .  A
C561        C562   1.391       .  A
C561        H564   1.082       .  S
C562        C563   1.386       .  A
C563        H565   1.082       .  S
N566        N567   1.325       .  A
N566        C570   1.344       .  A
N567        C568   1.346       .  A
C568        C569   1.380       .  A
C568        H571   1.082       .  S
C569        C757   1.460       .  S
C569        C570   1.378       .  A
C570        H572   1.082       .  S
C573        C574   1.515       .  S
C573        C579   1.519       .  S
C573        C577   1.524       .  S
C573        C600   1.509       .  S
C574        H581   1.087       .  S
C574        C575   1.363       .  D
C575        C645   1.475       .  S
C575        C576   1.567       .  S
C576        C580   1.554       .  S
C576        C578   1.564       .  S
C576        H582   1.107       .  S
C577        H583   1.079       .  S
C577        C578   1.376       .  D
C578        C654   1.525       .  S
C579        H584   1.080       .  S
C579        C580   1.371       .  D
C585        C586   1.518       .  S
C585        C591   1.520       .  S
C585        C589   1.524       .  S
C585        C610   1.509       .  S
C586        H593   1.086       .  S
C586        C587   1.362       .  D
C587        C646   1.472       .  S
C587        C588   1.564       .  S
C588        C592   1.551       .  S
C588        C590   1.562       .  S
C588        H594   1.107       .  S
C589        H595   1.079       .  S
C589        C590   1.375       .  D
C590        C666   1.521       .  S
C591        H596   1.080       .  S
C591        C592   1.372       .  D
N597        N598   1.319       .  A
N597       C1593   1.348       .  A
N597       Cu605   2.079       .  S
N598        C599   1.339       .  A
N598       Cu604   2.059       .  S
C599       C1592   1.385       .  A
C599       H1594   1.082       .  S
C600       C1591   1.385       .  A
C600        C601   1.391       .  A
C601       N1589   1.348       .  A
C601        H603   1.082       .  S
H602       C1591   1.082       .  S
Cu604       N607   2.060       .  S
Cu605       N615   2.080       .  S
Cu606       N608   2.076       .  S
Cu606       N614   2.077       .  S
N607        N608   1.318       .  A
N607        C611   1.339       .  A
N608        C609   1.348       .  A
C609        C610   1.391       .  A
C609        H612   1.082       .  S
C610        C611   1.386       .  A
C611        H613   1.082       .  S
N614        N615   1.325       .  A
N614        C618   1.344       .  A
N615        C616   1.346       .  A
C616        C617   1.380       .  A
C616        H619   1.082       .  S
C617        C881   1.461       .  S
C617        C618   1.378       .  A
C618        H620   1.082       .  S
O621       Cu629   2.024       .  S
O622      Cu1621   2.006   1_545  S
O622        C632   1.280       .  A
O623       Cu629   1.956       .  S
O623        C633   1.272       .  A
O624       Cu629   2.007       .  S
O624       C1626   1.277       .  A
O625       Cu630   2.005       .  S
O625        C634   1.276       .  A
O626       Cu630   1.959       .  S
O626       C1625   1.272       .  A
O627       Cu630   2.011       .  S
O627        C632   1.276       .  A
O628      Cu1126   1.996   1_556  S
O628        C631   1.278       .  A
Cu629      O1614   2.006       .  S
Cu629     Cu1622   2.380       .  S
Cu630      O1124   1.996       .  S
Cu630     Cu1621   2.380   1_545  S
C631        C656   1.475       .  S
C632        C668   1.472       .  S
C633       O1618   1.272       .  A
C633        C647   1.427       .  S
C634       O1616   1.277   1_545  A
C634        C865   1.460       .  S
O635      Cu1139   1.996   1_556  S
O635        C645   1.278       .  A
O636       Cu643   2.011       .  S
O636        C646   1.276       .  A
O637       Cu643   1.959       .  S
O637       C1639   1.272       .  A
O638       Cu643   2.005       .  S
O638        C648   1.276       .  A
O639       Cu644   2.008       .  S
O639       C1640   1.277       .  A
O640       Cu644   1.956       .  S
O640        C647   1.272       .  A
O641      Cu1636   2.006   1_545  S
O641        C646   1.279       .  A
O642       Cu644   2.024       .  S
Cu643      O1131   1.996       .  S
Cu643     Cu1636   2.380   1_545  S
Cu644      O1633   2.006       .  S
Cu644     Cu1635   2.380       .  S
C647       O1629   1.272       .  A
C648       O1631   1.277   1_545  A
C648       C1981   1.461       .  S
C649        C650   1.519       .  S
C649        C655   1.515       .  S
C649        C653   1.524       .  S
C649        C676   1.509       .  S
C650        H657   1.080       .  S
C650        C651   1.371       .  D
C651        C652   1.554       .  S
C651        C704   1.506       .  S
C652        C656   1.567       .  S
C652        C654   1.565       .  S
C652        H658   1.107       .  S
C653        H659   1.079       .  S
C653        C654   1.376       .  D
C655        H660   1.087       .  S
C655        C656   1.363       .  D
C661        C662   1.520       .  S
C661        C667   1.518       .  S
C661        C665   1.523       .  S
C661        C686   1.508       .  S
C662        H669   1.080       .  S
C662        C663   1.372       .  D
C663        C664   1.551       .  S
C663        C716   1.506       .  S
C664        C668   1.564       .  S
C664        C666   1.562       .  S
C664        H670   1.107       .  S
C665        H671   1.079       .  S
C665        C666   1.375       .  D
C667        H672   1.086       .  S
C667        C668   1.362       .  D
N673        N674   1.319       .  A
N673       C1669   1.348       .  A
N673       Cu681   2.078       .  S
N674       C1667   1.339       .  A
N674       Cu680   2.059       .  S
C675       N1666   1.339       .  A
C675        C676   1.385       .  A
C675        H678   1.082       .  S
C676        C677   1.391       .  A
C677       N1665   1.348       .  A
C677        H679   1.082       .  S
Cu680       N683   2.060       .  S
Cu681       N691   2.080       .  S
Cu682       N684   2.075       .  S
Cu682       N690   2.077       .  S
N683        N684   1.318       .  A
N683        C687   1.339       .  A
N684        C685   1.347       .  A
C685        C686   1.391       .  A
C685        H688   1.082       .  S
C686        C687   1.386       .  A
C687        H689   1.082       .  S
N690        N691   1.325       .  A
N690        C694   1.344       .  A
N691        C692   1.346       .  A
C692        C693   1.380       .  A
C692        H695   1.082       .  S
C693        C894   1.460       .  S
C693        C694   1.378       .  A
C694        H696   1.082       .  S
C697        C698   1.518       .  S
C697        C703   1.520       .  S
C697        C701   1.524       .  S
C697        C734   1.509       .  S
C698        H705   1.086       .  S
C698        C699   1.363       .  D
C699        C700   1.564       .  S
C700        C704   1.551       .  S
C700        C702   1.562       .  S
C700        H706   1.107       .  S
C701        H707   1.079       .  S
C701        C702   1.375       .  D
C703        H708   1.080       .  S
C703        C704   1.372       .  D
C709        C710   1.515       .  S
C709        C715   1.519       .  S
C709        C713   1.524       .  S
C709        C724   1.509       .  S
C710        H717   1.087       .  S
C710        C711   1.363       .  D
C711        C712   1.567       .  S
C712        C716   1.554       .  S
C712        C714   1.565       .  S
C712        H718   1.107       .  S
C713        H719   1.079       .  S
C713        C714   1.376       .  D
C715        H720   1.080       .  S
C715        C716   1.371       .  D
N721        N722   1.319       .  A
N721        C725   1.348       .  A
N721       Cu729   2.078       .  S
N722        C723   1.339       .  A
N722       Cu728   2.059       .  S
C723        C724   1.385       .  A
C723        H726   1.082       .  S
C724        C725   1.391       .  A
C725        H727   1.082       .  S
Cu728       N731   2.060       .  S
Cu729       N739   2.080       .  S
Cu730       N732   2.076       .  S
Cu730       N738   2.077       .  S
N731        N732   1.318       .  A
N731        C735   1.339       .  A
N732        C733   1.348       .  A
C733        C734   1.391       .  A
C733        H736   1.082       .  S
C734        C735   1.386       .  A
C735        H737   1.082       .  S
N738        N739   1.325       .  A
N738        C742   1.344       .  A
N739        C740   1.346       .  A
C740        C741   1.380       .  A
C740        H743   1.082       .  S
C741        C771   1.460       .  S
C741        C742   1.378       .  A
C742        H744   1.082       .  S
O745       Cu753   2.006       .  S
O745        C755   1.279       .  A
O746       Cu753   2.024       .  S
O746        C756   1.278       .  A
O747       Cu753   2.007       .  S
O747        C757   1.277       .  A
O748       Cu753   1.956       .  S
O748        C758   1.272       .  A
O749       Cu754   1.959       .  S
O749        C758   1.272       .  A
O750       Cu754   2.005       .  S
O750        C757   1.276       .  A
O751       Cu754   1.996       .  S
O751        C756   1.279       .  A
O752       Cu754   2.011       .  S
O752        C755   1.276       .  A
Cu753      Cu754   2.380       .  S
C755        C916   1.472       .  S
C756        C904   1.475       .  S
C758        C772   1.427   1_455  S
O759       Cu767   2.011       .  S
O759        C769   1.276       .  A
O760       Cu767   1.996       .  S
O760        C770   1.278       .  A
O761       Cu767   2.005       .  S
O761        C771   1.276       .  A
O762       Cu767   1.959       .  S
O762        C772   1.272       .  A
O763       Cu768   1.956       .  S
O763        C772   1.272       .  A
O764       Cu768   2.007       .  S
O764        C771   1.277       .  A
O765       Cu768   2.024       .  S
O765        C770   1.278       .  A
O766       Cu768   2.006       .  S
O766        C769   1.280       .  A
Cu767      Cu768   2.380       .  S
C769        C787   1.472       .  S
C770        C775   1.475       .  S
C773        C774   1.515       .  S
C773        C779   1.519       .  S
C773        C777   1.524       .  S
C773        C800   1.509       .  S
C774        H781   1.087       .  S
C774        C775   1.363       .  D
C775        C776   1.567       .  S
C776        C780   1.554       .  S
C776        C778   1.565       .  S
C776        H782   1.107       .  S
C777        H783   1.079       .  S
C777        C778   1.376       .  D
C778        C902   1.525   1_655  S
C779        H784   1.080       .  S
C779        C780   1.371       .  D
C780        C823   1.506       .  S
C785        C786   1.518       .  S
C785        C791   1.520       .  S
C785        C789   1.524       .  S
C785        C810   1.509       .  S
C786        H793   1.086       .  S
C786        C787   1.363       .  D
C787        C788   1.564       .  S
C788        C792   1.551       .  S
C788        C790   1.562       .  S
C788        H794   1.107       .  S
C789        H795   1.079       .  S
C789        C790   1.375       .  D
C790        C914   1.521   1_655  S
C791        H796   1.080       .  S
C791        C792   1.372       .  D
C792        C835   1.506       .  S
N797        N798   1.319       .  A
N797        C801   1.348       .  A
N797       Cu805   2.078       .  S
N798        C799   1.339       .  A
C799        C800   1.385       .  A
C799        H802   1.082       .  S
C800        C801   1.391       .  A
C801        H803   1.082       .  S
Cu804       N807   2.060       .  S
Cu805       N815   2.080   1_556  S
Cu806       N808   2.076       .  S
Cu806       N814   2.077       .  S
N807        N808   1.318       .  A
N807        C811   1.339       .  A
N808        C809   1.348       .  A
C809        C810   1.391       .  A
C809        H812   1.082       .  S
C810        C811   1.386       .  A
C811        H813   1.082       .  S
N814        C818   1.344       .  A
N815        C816   1.346   1_554  A
C816        C817   1.380   1_556  A
C816        H819   1.082       .  S
C818        H820   1.082       .  S
C821        C822   1.520       .  S
C821       C1819   1.518       .  S
C821        C825   1.524       .  S
C821        C858   1.508       .  S
C822        H829   1.080       .  S
C822        C823   1.372       .  D
C823        C824   1.551       .  S
C824       C1820   1.564       .  S
C824        C826   1.562       .  S
C824        H830   1.107       .  S
C825        H831   1.079       .  S
C825        C826   1.375       .  D
C826        C950   1.521   1_655  S
C827       C1813   1.518       .  S
C827        H832   1.086       .  S
C827        C828   1.362       .  D
C828        C896   1.472       .  S
C828       C1816   1.564   1_545  S
C833        C834   1.519       .  S
C833        C839   1.515       .  S
C833        C837   1.524       .  S
C833        C848   1.509       .  S
C834        H841   1.080       .  S
C834        C835   1.371       .  D
C835        C836   1.554       .  S
C836        C840   1.567       .  S
C836        C838   1.565       .  S
C836        H842   1.107       .  S
C837        H843   1.079       .  S
C837        C838   1.376       .  D
C838        C962   1.525   1_655  S
C839        H844   1.087       .  S
C839        C840   1.363       .  D
C840        C895   1.475       .  S
N845        N846   1.319       .  A
N845        C849   1.348       .  A
N845       Cu853   2.078       .  S
N846        C847   1.339       .  A
N846       Cu852   2.059       .  S
C847        C848   1.385       .  A
C847        H850   1.082       .  S
C848        C849   1.391       .  A
C849        H851   1.082       .  S
Cu853       N863   2.080       .  S
Cu854      N1352   2.075       .  S
Cu854       N862   2.077       .  S
N855       N1848   1.318       .  A
N855        C859   1.339       .  A
N856       N1847   1.318       .  A
N856        C857   1.347       .  A
N856      Cu1350   2.075       .  S
C857        C858   1.391       .  A
C857        H860   1.082       .  S
C858       C1851   1.386       .  A
C859       C1850   1.386       .  A
C859        H861   1.082       .  S
N862        N863   1.325       .  A
N862       C1858   1.344       .  A
N863        C864   1.346       .  A
C864        C865   1.380       .  A
C864        H867   1.082       .  S
C865       C1858   1.378       .  A
C866       N1854   1.344       .  A
C866       C1857   1.378       .  A
O869       Cu877   2.011   1_565  S
O869        C879   1.276   1_565  A
O870       Cu877   1.996       .  S
O870        C880   1.279       .  A
O871       Cu877   2.005       .  S
O871        C881   1.276       .  A
O872       Cu877   1.958       .  S
O872        C882   1.272       .  A
O873       Cu878   1.956       .  S
O873        C882   1.272       .  A
O874       Cu878   2.008       .  S
O874        C881   1.277       .  A
O875       Cu878   2.024       .  S
O875        C880   1.278       .  A
O876       Cu878   2.006       .  S
O876        C879   1.279       .  A
Cu877      Cu878   2.380       .  S
C879        C947   1.472       .  S
C880        C959   1.475       .  S
C882        C893   1.427   1_455  S
O883       Cu891   1.959       .  S
O883        C893   1.272       .  A
O884       Cu891   2.005       .  S
O884        C894   1.276       .  A
O885       Cu891   1.996       .  S
O885        C895   1.279       .  A
O886       Cu891   2.011   1_565  S
O886        C896   1.276   1_565  A
O887       Cu892   2.006       .  S
O887        C896   1.279       .  A
O888       Cu892   2.024       .  S
O888        C895   1.278       .  A
O889       Cu892   2.007       .  S
O889        C894   1.277       .  A
O890       Cu892   1.956       .  S
O890        C893   1.272       .  A
Cu891      Cu892   2.380       .  S
C897        C898   1.519       .  S
C897        C903   1.515       .  S
C897        C901   1.524       .  S
C897        C924   1.509       .  S
C898        H905   1.080       .  S
C898        C899   1.371       .  D
C899        C900   1.554       .  S
C899        C952   1.506       .  S
C900        C904   1.567       .  S
C900        C902   1.564       .  S
C900        H906   1.107       .  S
C901        H907   1.079       .  S
C901        C902   1.376       .  D
C903        H908   1.087       .  S
C903        C904   1.363       .  D
C909        C910   1.520       .  S
C909        C915   1.518       .  S
C909        C913   1.524       .  S
C909        C934   1.508       .  S
C910        H917   1.080       .  S
C910        C911   1.372       .  D
C911        C912   1.551       .  S
C911        C964   1.506       .  S
C912        C916   1.564       .  S
C912        C914   1.562       .  S
C912        H918   1.107       .  S
C913        H919   1.079       .  S
C913        C914   1.375       .  D
C915        H920   1.086       .  S
C915        C916   1.362       .  D
N921        N922   1.319       .  A
N921        C925   1.348       .  A
N921       Cu929   2.079       .  S
N922        C923   1.339       .  A
C923        C924   1.385       .  A
C923        H926   1.082       .  S
C924        C925   1.391       .  A
C925        H927   1.082       .  S
Cu928       N931   2.060       .  S
Cu929       N939   2.080   1_556  S
Cu930       N932   2.076       .  S
Cu930       N938   2.077       .  S
N931        N932   1.318       .  A
N931        C935   1.339       .  A
N932        C933   1.347       .  A
C933        C934   1.391       .  A
C933        H936   1.082       .  S
C934        C935   1.386       .  A
C935        H937   1.082       .  S
N938        C942   1.344       .  A
N939        C940   1.346   1_554  A
C940        C941   1.380   1_556  A
C940        H943   1.082       .  S
C942        H944   1.082       .  S
C945       C1938   1.518       .  S
C945        C951   1.520       .  S
C945        C949   1.524       .  S
C945        C982   1.509       .  S
C946       C1937   1.518       .  S
C946        H953   1.086       .  S
C946        C947   1.362       .  D
C947       C1940   1.564   1_545  S
C948       C1939   1.564       .  S
C948        C952   1.551       .  S
C948        C950   1.562       .  S
C948        H954   1.107       .  S
C949        H955   1.079       .  S
C949        C950   1.375       .  D
C951        H956   1.080       .  S
C951        C952   1.372       .  D
C957        C958   1.515       .  S
C957        C963   1.519       .  S
C957        C961   1.524       .  S
C957        C972   1.509       .  S
C958        H965   1.087       .  S
C958        C959   1.363       .  D
C959        C960   1.567       .  S
C960        C964   1.554       .  S
C960        C962   1.564       .  S
C960        H966   1.107       .  S
C961        H967   1.079       .  S
C961        C962   1.376       .  D
C963        H968   1.080       .  S
C963        C964   1.371       .  D
N969        N970   1.319       .  A
N969        C973   1.348       .  A
N969       Cu977   2.079       .  S
N970        C971   1.339       .  A
N970       Cu976   2.059       .  S
C971        C972   1.385       .  A
C971        H974   1.082       .  S
C972        C973   1.391       .  A
C973        H975   1.082       .  S
Cu976       N979   2.060       .  S
Cu977       N987   2.080       .  S
Cu978       N986   2.077       .  S
N979       N1476   1.318       .  A
N979       C1479   1.339       .  A
N980       N1475   1.318       .  A
N980        C981   1.348       .  A
C981        C982   1.391       .  A
C981        H984   1.082       .  S
C982        C983   1.386       .  A
C983       N1475   1.339       .  A
C983       H1977   1.082       .  S
H985       C1975   1.082       .  S
N986       N1979   1.325       .  A
N986        C990   1.344       .  A
N987       N1978   1.325       .  A
N987        C988   1.346       .  A
C988       C1981   1.380       .  A
C988        H991   1.082       .  S
C989       C1640   1.461       .  S
C989       C1980   1.380       .  A
C989        C990   1.378       .  A
C990        H992   1.082       .  S
O993      Cu1001   1.996       .  S
O993       C1003   1.278       .  A
O994      Cu1497   2.011       .  S
O994       C1004   1.276       .  A
O995      Cu1001   1.959       .  S
O995       C1501   1.272       .  A
O996      Cu1001   2.005       .  S
O996       C1006   1.276       .  A
O997      Cu1002   2.008       .  S
O997       C1502   1.277       .  A
O998      Cu1002   1.956       .  S
O998       C1005   1.272       .  A
O999      Cu1002   2.007       .  S
O999       C1004   1.280       .  A
O1000     Cu1498   2.025       .  S
O1000      C1003   1.278       .  A
Cu1001     O1490   2.011   1_554  S
Cu1001    Cu1498   2.380       .  S
Cu1002     O1496   2.025       .  S
Cu1002    Cu1497   2.380       .  S
C1003      C1207   1.475       .  S
C1004      C1195   1.472       .  S
C1005      O1491   1.272       .  A
C1005      C1020   1.427       .  S
C1006      O1493   1.277       .  A
C1006      C1809   1.461       .  S
O1007     Cu1015   2.006       .  S
O1007      C1017   1.279       .  A
O1008     Cu1511   2.024       .  S
O1008      C1018   1.278       .  A
O1009     Cu1015   2.007       .  S
O1009      C1019   1.277       .  A
O1010     Cu1015   1.956       .  S
O1010      C1020   1.272       .  A
O1011     Cu1016   1.959       .  S
O1011      C1516   1.272       .  A
O1012     Cu1016   2.005       .  S
O1012      C1515   1.276       .  A
O1013     Cu1016   1.996       .  S
O1013      C1018   1.279       .  A
O1014     Cu1512   2.011       .  S
O1014      C1017   1.276       .  A
Cu1015     O1504   2.024       .  S
Cu1015    Cu1512   2.380       .  S
Cu1016     O1510   2.011   1_554  S
Cu1016    Cu1511   2.380       .  S
C1017      C1028   1.472       .  S
C1018      C1040   1.475       .  S
C1019      O1508   1.276       .  A
C1019      C1437   1.461       .  S
C1020      O1507   1.272       .  A
C1021      C1022   1.520       .  S
C1021      C1027   1.518       .  S
C1021      C1025   1.523       .  S
C1021      C1058   1.508       .  S
C1022      H1029   1.080       .  S
C1022      C1023   1.372       .  D
C1023      C1024   1.551       .  S
C1023      C1076   1.506       .  S
C1024      C1028   1.564       .  S
C1024      C1026   1.562       .  S
C1024      H1030   1.107       .  S
C1025      H1031   1.079       .  S
C1025      C1026   1.375       .  D
C1026      C1198   1.521       .  S
C1027      H1032   1.086       .  S
C1027      C1028   1.362       .  D
C1033      C1034   1.518       .  S
C1033      C1039   1.515       .  S
C1033      C1037   1.524       .  S
C1033      C1048   1.509       .  S
C1034      H1041   1.080       .  S
C1034      C1035   1.371       .  D
C1035      C1036   1.554       .  S
C1035      C1088   1.506       .  S
C1036      C1040   1.567       .  S
C1036      C1038   1.564       .  S
C1036      H1042   1.107       .  S
C1037      H1043   1.079       .  S
C1037      C1038   1.376       .  D
C1038      C1210   1.525       .  S
C1039      H1044   1.087       .  S
C1039      C1040   1.363       .  D
N1045      N1046   1.319       .  A
N1045      C1049   1.348       .  A
N1045     Cu1053   2.079       .  S
N1046      C1047   1.339       .  A
N1046     Cu1052   2.059       .  S
C1047      C1048   1.385       .  A
C1047      H1050   1.082       .  S
C1048      C1049   1.391       .  A
C1049      H1051   1.082       .  S
Cu1052     N1055   2.060       .  S
Cu1053     N1063   2.080       .  S
Cu1054     N1056   2.075       .  S
Cu1054     N1062   2.077       .  S
N1055      N1056   1.318       .  A
N1055      C1059   1.339       .  A
N1056      C1057   1.347       .  A
C1057      C1058   1.391       .  A
C1057      H1060   1.082       .  S
C1058      C1059   1.386       .  A
C1059      H1061   1.082       .  S
N1062      N1063   1.325       .  A
N1062      C1066   1.344       .  A
N1063      C1064   1.346       .  A
C1064      C1065   1.380       .  A
C1064      H1067   1.082       .  S
C1065      C1253   1.460       .  S
C1065      C1066   1.378       .  A
C1066      H1068   1.082       .  S
C1069      C1070   1.515       .  S
C1069      C1075   1.519   1_545  S
C1069      C1073   1.524       .  S
C1069      C1096   1.509       .  S
C1070      H1077   1.087       .  S
C1070      C1071   1.363   1_545  D
C1071      C1141   1.475   1_565  S
C1071      C1072   1.567       .  S
C1072      C1076   1.554       .  S
C1072      C1074   1.564       .  S
C1072      H1078   1.107       .  S
C1073      H1079   1.079       .  S
C1073      C1074   1.376   1_545  D
C1074      C1150   1.525       .  S
C1075      H1080   1.080       .  S
C1075      C1076   1.371       .  D
C1081      C1082   1.518       .  S
C1081      C1087   1.520       .  S
C1081      C1085   1.524       .  S
C1081      C1106   1.509       .  S
C1082      H1089   1.086       .  S
C1082      C1083   1.362       .  D
C1083      C1142   1.472       .  S
C1083      C1084   1.564       .  S
C1084      C1088   1.551       .  S
C1084      C1086   1.562       .  S
C1084      H1090   1.107       .  S
C1085      H1091   1.079       .  S
C1085      C1086   1.375       .  D
C1086      C1162   1.521       .  S
C1087      H1092   1.080       .  S
C1087      C1088   1.372       .  D
N1093      N1094   1.319       .  A
N1093     Cu1101   2.079       .  S
N1094      C1095   1.339       .  A
N1094     Cu1100   2.059       .  S
C1096      C1097   1.391       .  A
C1097      H1099   1.082       .  S
Cu1100     N1103   2.060       .  S
Cu1101     N1111   2.080       .  S
Cu1102     N1104   2.076       .  S
Cu1102     N1110   2.077       .  S
N1103      N1104   1.318       .  A
N1103      C1107   1.339       .  A
N1104      C1105   1.348       .  A
C1105      C1106   1.391       .  A
C1105      H1108   1.082       .  S
C1106      C1107   1.386       .  A
C1107      H1109   1.082       .  S
N1110      N1111   1.325       .  A
N1110      C1114   1.344       .  A
N1111      C1112   1.346       .  A
C1112      C1113   1.380       .  A
C1112      H1115   1.082       .  S
C1113      C1377   1.461       .  S
C1113      C1114   1.378       .  A
C1114      H1116   1.082       .  S
O1117     Cu1125   2.024   1_556  S
O1117      C1623   1.278   1_565  A
O1118      C1128   1.280       .  A
O1119     Cu1125   1.956       .  S
O1119      C1129   1.272   1_565  A
O1120     Cu1125   2.007       .  S
O1121     Cu1126   2.005       .  S
O1121      C1130   1.276       .  A
O1122     Cu1126   1.959       .  S
O1123     Cu1126   2.011       .  S
O1123      C1128   1.276       .  A
O1124      C1127   1.278       .  A
C1127      O1613   1.278   1_545  A
C1127      C1152   1.475   1_545  S
C1128      C1164   1.472       .  S
C1129      C1143   1.427       .  S
C1130      C1361   1.460       .  S
O1131      C1141   1.278       .  A
O1132     Cu1139   2.011       .  S
O1132      C1142   1.276       .  A
O1133     Cu1139   1.959       .  S
O1134     Cu1139   2.005       .  S
O1134      C1144   1.276       .  A
O1135     Cu1140   2.008       .  S
O1136     Cu1140   1.956       .  S
O1136      C1143   1.272   1_565  A
O1137      C1142   1.279       .  A
O1138     Cu1140   2.024   1_556  S
O1138      C1637   1.278   1_565  A
C1141      O1634   1.278   1_545  A
C1145      C1146   1.519   1_545  S
C1145      C1151   1.515       .  S
C1145      C1149   1.524       .  S
C1145      C1172   1.509       .  S
C1146      H1153   1.080       .  S
C1146      C1147   1.371       .  D
C1147      C1148   1.554       .  S
C1147      C1200   1.506       .  S
C1148      C1152   1.567       .  S
C1148      C1150   1.565       .  S
C1148      H1154   1.107       .  S
C1149      H1155   1.079       .  S
C1149      C1150   1.376   1_545  D
C1151      H1156   1.087       .  S
C1151      C1152   1.363   1_545  D
C1157      C1158   1.520       .  S
C1157      C1163   1.518       .  S
C1157      C1161   1.523       .  S
C1157      C1182   1.508       .  S
C1158      H1165   1.080       .  S
C1158      C1159   1.372       .  D
C1159      C1160   1.551       .  S
C1159      C1212   1.506       .  S
C1160      C1164   1.564       .  S
C1160      C1162   1.562       .  S
C1160      H1166   1.107       .  S
C1161      H1167   1.079       .  S
C1161      C1162   1.375       .  D
C1163      H1168   1.086       .  S
C1163      C1164   1.362       .  D
N1169      N1170   1.319       .  A
N1169     Cu1177   2.078       .  S
N1170     Cu1176   2.059       .  S
C1171      C1172   1.385       .  A
C1171      H1174   1.082       .  S
C1172      C1173   1.391       .  A
C1173      H1175   1.082       .  S
Cu1176     N1179   2.060       .  S
Cu1177     N1187   2.080       .  S
Cu1178     N1180   2.075       .  S
Cu1178     N1186   2.077       .  S
N1179      N1180   1.318       .  A
N1179      C1183   1.339       .  A
N1180      C1181   1.347       .  A
C1181      C1182   1.391       .  A
C1181      H1184   1.082       .  S
C1182      C1183   1.386       .  A
C1183      H1185   1.082       .  S
N1186      N1187   1.325       .  A
N1186      C1190   1.344       .  A
N1187      C1188   1.346       .  A
C1188      C1189   1.380       .  A
C1188      H1191   1.082       .  S
C1189      C1390   1.460       .  S
C1189      C1190   1.378       .  A
C1190      H1192   1.082       .  S
C1193      C1194   1.518       .  S
C1193      C1199   1.520       .  S
C1193      C1197   1.524       .  S
C1193      C1230   1.509       .  S
C1194      H1201   1.086       .  S
C1194      C1195   1.363       .  D
C1195      C1196   1.564       .  S
C1196      C1200   1.551       .  S
C1196      C1198   1.562       .  S
C1196      H1202   1.107       .  S
C1197      H1203   1.079       .  S
C1197      C1198   1.375       .  D
C1199      H1204   1.080       .  S
C1199      C1200   1.372       .  D
C1205      C1206   1.515       .  S
C1205      C1211   1.519       .  S
C1205      C1209   1.524       .  S
C1205      C1220   1.509       .  S
C1206      H1213   1.087       .  S
C1206      C1207   1.363       .  D
C1207      C1208   1.567       .  S
C1208      C1212   1.554       .  S
C1208      C1210   1.565       .  S
C1208      H1214   1.107       .  S
C1209      H1215   1.079       .  S
C1209      C1210   1.376       .  D
C1211      H1216   1.080       .  S
C1211      C1212   1.371       .  D
N1217      N1218   1.319       .  A
N1217      C1221   1.348       .  A
N1217     Cu1225   2.078       .  S
N1218      C1219   1.339       .  A
N1218     Cu1224   2.059       .  S
C1219      C1220   1.385       .  A
C1219      H1222   1.082       .  S
C1220      C1221   1.391       .  A
C1221      H1223   1.082       .  S
Cu1224     N1227   2.060       .  S
Cu1225     N1235   2.080       .  S
Cu1226     N1228   2.076       .  S
Cu1226     N1234   2.077       .  S
N1227      N1228   1.318       .  A
N1227      C1231   1.339       .  A
N1228      C1229   1.348       .  A
C1229      C1230   1.391       .  A
C1229      H1232   1.082       .  S
C1230      C1231   1.386       .  A
C1231      H1233   1.082       .  S
N1234      N1235   1.325       .  A
N1234      C1238   1.344       .  A
N1235      C1236   1.346       .  A
C1236      C1237   1.380       .  A
C1236      H1239   1.082       .  S
C1237      C1267   1.460       .  S
C1237      C1238   1.378       .  A
C1238      H1240   1.082       .  S
O1241     Cu1249   2.006       .  S
O1241      C1251   1.279       .  A
O1242     Cu1249   2.024       .  S
O1242      C1252   1.278       .  A
O1243     Cu1249   2.007       .  S
O1243      C1253   1.277       .  A
O1244     Cu1249   1.956       .  S
O1244      C1254   1.272       .  A
O1245     Cu1250   1.959       .  S
O1245      C1254   1.272       .  A
O1246     Cu1250   2.005       .  S
O1246      C1253   1.276       .  A
O1247     Cu1250   1.996       .  S
O1247      C1252   1.279       .  A
O1248     Cu1250   2.011       .  S
O1248      C1251   1.276       .  A
Cu1249    Cu1250   2.380       .  S
C1251      C1412   1.472       .  S
C1252      C1400   1.475       .  S
C1254      C1268   1.427   1_455  S
O1255     Cu1263   2.011       .  S
O1255      C1265   1.276       .  A
O1256     Cu1263   1.996       .  S
O1256      C1266   1.278       .  A
O1257     Cu1263   2.005       .  S
O1257      C1267   1.276       .  A
O1258     Cu1263   1.959       .  S
O1258      C1268   1.272       .  A
O1259     Cu1264   1.956       .  S
O1259      C1268   1.272       .  A
O1260     Cu1264   2.007       .  S
O1260      C1267   1.277       .  A
O1261     Cu1264   2.024       .  S
O1261      C1266   1.278       .  A
O1262     Cu1264   2.006       .  S
O1262      C1265   1.280       .  A
Cu1263    Cu1264   2.380       .  S
C1265      C1283   1.472       .  S
C1266      C1271   1.475       .  S
C1269      C1270   1.515       .  S
C1269      C1275   1.519       .  S
C1269      C1273   1.524       .  S
C1269      C1296   1.509       .  S
C1270      H1277   1.087       .  S
C1270      C1271   1.363       .  D
C1271      C1272   1.567       .  S
C1272      C1276   1.554       .  S
C1272      C1274   1.565       .  S
C1272      H1278   1.107       .  S
C1273      H1279   1.079       .  S
C1273      C1274   1.376       .  D
C1274      C1398   1.525   1_655  S
C1275      H1280   1.080       .  S
C1275      C1276   1.371       .  D
C1276      C1319   1.506       .  S
C1281      C1282   1.518       .  S
C1281      C1287   1.520       .  S
C1281      C1285   1.524       .  S
C1281      C1306   1.509       .  S
C1282      H1289   1.086       .  S
C1282      C1283   1.363       .  D
C1283      C1284   1.564       .  S
C1284      C1288   1.551       .  S
C1284      C1286   1.562       .  S
C1284      H1290   1.107       .  S
C1285      H1291   1.079       .  S
C1285      C1286   1.375       .  D
C1286      C1410   1.521   1_655  S
C1287      H1292   1.080       .  S
C1287      C1288   1.372       .  D
C1288      C1331   1.506       .  S
N1293      N1294   1.319       .  A
N1293      C1297   1.348       .  A
N1293     Cu1301   2.078       .  S
N1294      C1295   1.339       .  A
N1294     Cu1796   2.059       .  S
C1295      C1296   1.385       .  A
C1295      H1298   1.082       .  S
C1296      C1297   1.391       .  A
C1297      H1299   1.082       .  S
Cu1300     N1790   2.059   1_554  S
Cu1300     N1303   2.060       .  S
Cu1301     N1311   2.080       .  S
Cu1302     N1304   2.076       .  S
Cu1302     N1310   2.077       .  S
N1303      N1304   1.318       .  A
N1303      C1307   1.339       .  A
N1304      C1305   1.348       .  A
C1305      C1306   1.391       .  A
C1305      H1308   1.082       .  S
C1306      C1307   1.386       .  A
C1307      H1309   1.082       .  S
N1310      N1807   1.325       .  A
N1310      C1314   1.344       .  A
N1311      N1806   1.325       .  A
N1311      C1312   1.346       .  A
C1312      C1313   1.380       .  A
C1312      H1315   1.082       .  S
C1313      C1502   1.461       .  S
C1313      C1810   1.378       .  A
C1314      C1809   1.378       .  A
C1314      H1316   1.082       .  S
C1317      C1318   1.520   1_545  S
C1317      C1321   1.524       .  S
C1317      C1354   1.508       .  S
C1318      H1325   1.080       .  S
C1318      C1319   1.372       .  D
C1319      C1320   1.551       .  S
C1320      C1322   1.562   1_565  S
C1320      H1326   1.107       .  S
C1321      H1327   1.079       .  S
C1321      C1322   1.375       .  D
C1322      C1446   1.521   1_655  S
C1323      H1328   1.086       .  S
C1323      C1324   1.362       .  D
C1324      C1392   1.472       .  S
C1329      C1330   1.519       .  S
C1329      C1335   1.515       .  S
C1329      C1333   1.524       .  S
C1329      C1344   1.509       .  S
C1330      H1337   1.080       .  S
C1330      C1331   1.371       .  D
C1331      C1332   1.554       .  S
C1332      C1336   1.567       .  S
C1332      C1334   1.565       .  S
C1332      H1338   1.107       .  S
C1333      H1339   1.079       .  S
C1333      C1334   1.376       .  D
C1334      C1458   1.525   1_655  S
C1335      H1340   1.087       .  S
C1335      C1336   1.363       .  D
C1336      C1391   1.475       .  S
N1341      N1342   1.319       .  A
N1341      C1345   1.348       .  A
N1341     Cu1349   2.078       .  S
N1342      C1343   1.339       .  A
N1342     Cu1348   2.059       .  S
C1343      C1344   1.385       .  A
C1343      H1346   1.082       .  S
C1344      C1345   1.391       .  A
C1345      H1347   1.082       .  S
Cu1348     N1847   2.060   1_554  S
Cu1349     N1359   2.080       .  S
Cu1350     N1358   2.077   1_556  S
N1351      C1355   1.339       .  A
N1351     Cu1844   2.060       .  S
N1352      C1353   1.347       .  A
C1353      C1354   1.391       .  A
C1353      H1356   1.082       .  S
C1355      H1357   1.082       .  S
N1358      N1359   1.325       .  A
N1359      C1360   1.346       .  A
C1360      C1361   1.380       .  A
C1360      H1363   1.082       .  S
C1362      H1860   1.082   1_554  S
H1364      C1858   1.082       .  S
O1365     Cu1373   2.011       .  S
O1365      C1375   1.276       .  A
O1366     Cu1373   1.996       .  S
O1366      C1376   1.279       .  A
O1367     Cu1373   2.005       .  S
O1367      C1377   1.276       .  A
O1368     Cu1373   1.958       .  S
O1368      C1378   1.272       .  A
O1369     Cu1374   1.956       .  S
O1369      C1378   1.272       .  A
O1370     Cu1374   2.008       .  S
O1370      C1377   1.277       .  A
O1371     Cu1374   2.024       .  S
O1371      C1376   1.278       .  A
O1372     Cu1374   2.006       .  S
O1372      C1375   1.279       .  A
Cu1373    Cu1374   2.380       .  S
C1375      C1443   1.472       .  S
C1376      C1455   1.475       .  S
C1378      C1389   1.427   1_455  S
O1379     Cu1387   1.959       .  S
O1379      C1389   1.272       .  A
O1380     Cu1387   2.005       .  S
O1380      C1390   1.276       .  A
O1381     Cu1387   1.996       .  S
O1381      C1391   1.279       .  A
O1382     Cu1387   2.011       .  S
O1382      C1392   1.276       .  A
O1383     Cu1388   2.006       .  S
O1383      C1392   1.279       .  A
O1384     Cu1388   2.024       .  S
O1384      C1391   1.278       .  A
O1385     Cu1388   2.007       .  S
O1385      C1390   1.277       .  A
O1386     Cu1388   1.956       .  S
O1386      C1389   1.272       .  A
Cu1387    Cu1388   2.380       .  S
C1393      C1394   1.519       .  S
C1393      C1399   1.515       .  S
C1393      C1397   1.524       .  S
C1393      C1420   1.509       .  S
C1394      H1401   1.080       .  S
C1394      C1395   1.371       .  D
C1395      C1396   1.554       .  S
C1395      C1448   1.506       .  S
C1396      C1400   1.567       .  S
C1396      C1398   1.564       .  S
C1396      H1402   1.107       .  S
C1397      H1403   1.079       .  S
C1397      C1398   1.376       .  D
C1399      H1404   1.087       .  S
C1399      C1400   1.363       .  D
C1405      C1406   1.520       .  S
C1405      C1411   1.518       .  S
C1405      C1409   1.524       .  S
C1405      C1430   1.508       .  S
C1406      H1413   1.080       .  S
C1406      C1407   1.372       .  D
C1407      C1408   1.551       .  S
C1407      C1460   1.506       .  S
C1408      C1412   1.564       .  S
C1408      C1410   1.562       .  S
C1408      H1414   1.107       .  S
C1409      H1415   1.079       .  S
C1409      C1410   1.375       .  D
C1411      H1416   1.086       .  S
C1411      C1412   1.362       .  D
N1417      N1418   1.319       .  A
N1417      C1421   1.348       .  A
N1417     Cu1425   2.079       .  S
N1418      C1419   1.339       .  A
N1418     Cu1920   2.059       .  S
C1419      C1420   1.385       .  A
C1419      H1422   1.082       .  S
C1420      C1421   1.391       .  A
C1421      H1423   1.082       .  S
Cu1424     N1914   2.059   1_554  S
Cu1424     N1427   2.060       .  S
Cu1425     N1435   2.080       .  S
Cu1426     N1428   2.076       .  S
Cu1426     N1434   2.077       .  S
N1427      N1428   1.318       .  A
N1427      C1431   1.339       .  A
N1428      C1429   1.347       .  A
C1429      C1430   1.391       .  A
C1429      H1432   1.082       .  S
C1430      C1431   1.386       .  A
C1431      H1433   1.082       .  S
N1434      N1931   1.325       .  A
N1434      C1438   1.344       .  A
N1435      N1930   1.325       .  A
N1435      C1436   1.346       .  A
C1436      C1437   1.380       .  A
C1436      H1439   1.082       .  S
C1437      C1934   1.378       .  A
C1438      C1933   1.378       .  A
C1438      H1440   1.082       .  S
C1441      C1447   1.520   1_545  S
C1441      C1445   1.524       .  S
C1441      C1478   1.509       .  S
C1442      H1449   1.086       .  S
C1442      C1443   1.362       .  D
C1444      C1448   1.551       .  S
C1444      C1446   1.562   1_565  S
C1444      H1450   1.107       .  S
C1445      H1451   1.079       .  S
C1445      C1446   1.375       .  D
C1447      H1452   1.080       .  S
C1447      C1448   1.372       .  D
C1453      C1454   1.515       .  S
C1453      C1459   1.519       .  S
C1453      C1457   1.524       .  S
C1453      C1468   1.509       .  S
C1454      H1461   1.087       .  S
C1454      C1455   1.363       .  D
C1455      C1456   1.567       .  S
C1456      C1460   1.554       .  S
C1456      C1458   1.564       .  S
C1456      H1462   1.107       .  S
C1457      H1463   1.079       .  S
C1457      C1458   1.376       .  D
C1459      H1464   1.080       .  S
C1459      C1460   1.371       .  D
N1465      N1466   1.319       .  A
N1465      C1469   1.348       .  A
N1465     Cu1473   2.079       .  S
N1466      C1467   1.339       .  A
N1466     Cu1472   2.059       .  S
C1467      C1468   1.385       .  A
C1467      H1470   1.082       .  S
C1468      C1469   1.391       .  A
C1469      H1471   1.082       .  S
Cu1472     N1475   2.060   1_554  S
Cu1473     N1483   2.080       .  S
Cu1474     N1972   2.076       .  S
Cu1474     N1482   2.077   1_556  S
N1476      C1477   1.348       .  A
N1476     Cu1970   2.076       .  S
C1477      C1478   1.391       .  A
C1477      H1480   1.082       .  S
C1478      C1479   1.386       .  A
N1482      C1486   1.344       .  A
N1483      C1484   1.346       .  A
C1484      H1487   1.082       .  S
C1485      C1486   1.378       .  A
C1486      H1488   1.082   1_554  S
O1489     Cu1497   1.996       .  S
O1489      C1499   1.278       .  A
O1490      C1500   1.276       .  A
O1491     Cu1497   1.959       .  S
O1492     Cu1497   2.005       .  S
O1492      C1502   1.276       .  A
O1493     Cu1498   2.008       .  S
O1494     Cu1498   1.956       .  S
O1494      C1501   1.272       .  A
O1495     Cu1498   2.007   1_556  S
O1495      C1500   1.280       .  A
O1496      C1499   1.278       .  A
C1499      C1703   1.475       .  S
C1500      C1691   1.472       .  S
C1501      C1516   1.427       .  S
O1503     Cu1511   2.006   1_556  S
O1503      C1513   1.279       .  A
O1504      C1514   1.278       .  A
O1505     Cu1511   2.007       .  S
O1505      C1515   1.277       .  A
O1506     Cu1511   1.956       .  S
O1506      C1516   1.272       .  A
O1507     Cu1512   1.959       .  S
O1508     Cu1512   2.005       .  S
O1509     Cu1512   1.996       .  S
O1509      C1514   1.279       .  A
O1510      C1513   1.276       .  A
C1513      C1524   1.472       .  S
C1514      C1536   1.475       .  S
C1515      C1933   1.461       .  S
C1517      C1518   1.520       .  S
C1517      C1523   1.518       .  S
C1517      C1521   1.523       .  S
C1517      C1554   1.508       .  S
C1518      H1525   1.080       .  S
C1518      C1519   1.372       .  D
C1519      C1520   1.551       .  S
C1519      C1572   1.506       .  S
C1520      C1524   1.564       .  S
C1520      C1522   1.562       .  S
C1520      H1526   1.107       .  S
C1521      H1527   1.079       .  S
C1521      C1522   1.375       .  D
C1522      C1694   1.521       .  S
C1523      H1528   1.086       .  S
C1523      C1524   1.362       .  D
C1529      C1530   1.518       .  S
C1529      C1535   1.515       .  S
C1529      C1533   1.524       .  S
C1529      C1544   1.509       .  S
C1530      H1537   1.080       .  S
C1530      C1531   1.371       .  D
C1531      C1532   1.554       .  S
C1531      C1584   1.506       .  S
C1532      C1536   1.567       .  S
C1532      C1534   1.564       .  S
C1532      H1538   1.107       .  S
C1533      H1539   1.079       .  S
C1533      C1534   1.376       .  D
C1534      C1706   1.525       .  S
C1535      H1540   1.087       .  S
C1535      C1536   1.363       .  D
N1541      N1542   1.319       .  A
N1541      C1545   1.348       .  A
N1541     Cu1549   2.079       .  S
N1542      C1543   1.339       .  A
N1542     Cu1548   2.059       .  S
C1543      C1544   1.385       .  A
C1543      H1546   1.082       .  S
C1544      C1545   1.391       .  A
C1545      H1547   1.082       .  S
Cu1548     N1551   2.060       .  S
Cu1549     N1559   2.080       .  S
Cu1550     N1552   2.075       .  S
Cu1550     N1558   2.077       .  S
N1551      N1552   1.318       .  A
N1551      C1555   1.339       .  A
N1552      C1553   1.347       .  A
C1553      C1554   1.391       .  A
C1553      H1556   1.082       .  S
C1554      C1555   1.386       .  A
C1555      H1557   1.082       .  S
N1558      N1559   1.325       .  A
N1558      C1562   1.344       .  A
N1559      C1560   1.346       .  A
C1560      C1561   1.380       .  A
C1560      H1563   1.082       .  S
C1561      C1749   1.460       .  S
C1561      C1562   1.378       .  A
C1562      H1564   1.082       .  S
C1565      C1566   1.515       .  S
C1565      C1571   1.519   1_545  S
C1565      C1569   1.524       .  S
C1565      C1592   1.509       .  S
C1566      H1573   1.087       .  S
C1566      C1567   1.363   1_545  D
C1567      C1637   1.475   1_565  S
C1567      C1568   1.567       .  S
C1568      C1572   1.554       .  S
C1568      C1570   1.564       .  S
C1568      H1574   1.107       .  S
C1569      H1575   1.079       .  S
C1569      C1570   1.376   1_545  D
C1570      C1646   1.525       .  S
C1571      H1576   1.080       .  S
C1571      C1572   1.371       .  D
C1577      C1578   1.518       .  S
C1577      C1583   1.520       .  S
C1577      C1581   1.524       .  S
C1577      C1602   1.509       .  S
C1578      H1585   1.086       .  S
C1578      C1579   1.362       .  D
C1579      C1638   1.472       .  S
C1579      C1580   1.564       .  S
C1580      C1584   1.551       .  S
C1580      C1582   1.562       .  S
C1580      H1586   1.107       .  S
C1581      H1587   1.079       .  S
C1581      C1582   1.375       .  D
C1582      C1658   1.521       .  S
C1583      H1588   1.080       .  S
C1583      C1584   1.372       .  D
N1589      N1590   1.319       .  A
N1589     Cu1597   2.079       .  S
N1590      C1591   1.339       .  A
N1590     Cu1596   2.059       .  S
C1592      C1593   1.391       .  A
C1593      H1595   1.082       .  S
Cu1596     N1599   2.060       .  S
Cu1597     N1607   2.080       .  S
Cu1598     N1600   2.076       .  S
Cu1598     N1606   2.077       .  S
N1599      N1600   1.318       .  A
N1599      C1603   1.339       .  A
N1600      C1601   1.348       .  A
C1601      C1602   1.391       .  A
C1601      H1604   1.082       .  S
C1602      C1603   1.386       .  A
C1603      H1605   1.082       .  S
N1606      N1607   1.325       .  A
N1606      C1610   1.344       .  A
N1607      C1608   1.346       .  A
C1608      C1609   1.380       .  A
C1608      H1611   1.082       .  S
C1609      C1873   1.461       .  S
C1609      C1610   1.378       .  A
C1610      H1612   1.082       .  S
O1613     Cu1621   2.024       .  S
O1614      C1624   1.280       .  A
O1615     Cu1621   1.956       .  S
O1615      C1625   1.272   1_565  A
O1616     Cu1621   2.007       .  S
O1617     Cu1622   2.005       .  S
O1617      C1626   1.276       .  A
O1618     Cu1622   1.959       .  S
O1619     Cu1622   2.011       .  S
O1619      C1624   1.276       .  A
O1620      C1623   1.278       .  A
C1623      C1648   1.475   1_545  S
C1624      C1660   1.472       .  S
C1625      C1639   1.427       .  S
C1626      C1857   1.460       .  S
O1627      C1637   1.278       .  A
O1628     Cu1635   2.011       .  S
O1628      C1638   1.276       .  A
O1629     Cu1635   1.959       .  S
O1630     Cu1635   2.005       .  S
O1630      C1640   1.276       .  A
O1631     Cu1636   2.008       .  S
O1632     Cu1636   1.956       .  S
O1632      C1639   1.272   1_565  A
O1633      C1638   1.279       .  A
O1634     Cu1636   2.024       .  S
C1641      C1642   1.519   1_545  S
C1641      C1647   1.515       .  S
C1641      C1645   1.524       .  S
C1641      C1668   1.509       .  S
C1642      H1649   1.080       .  S
C1642      C1643   1.371       .  D
C1643      C1644   1.554       .  S
C1643      C1696   1.506       .  S
C1644      C1648   1.567       .  S
C1644      C1646   1.565       .  S
C1644      H1650   1.107       .  S
C1645      H1651   1.079       .  S
C1645      C1646   1.376   1_545  D
C1647      H1652   1.087       .  S
C1647      C1648   1.363   1_545  D
C1653      C1654   1.520       .  S
C1653      C1659   1.518       .  S
C1653      C1657   1.523       .  S
C1653      C1678   1.508       .  S
C1654      H1661   1.080       .  S
C1654      C1655   1.372       .  D
C1655      C1656   1.551       .  S
C1655      C1708   1.506       .  S
C1656      C1660   1.564       .  S
C1656      C1658   1.562       .  S
C1656      H1662   1.107       .  S
C1657      H1663   1.079       .  S
C1657      C1658   1.375       .  D
C1659      H1664   1.086       .  S
C1659      C1660   1.362       .  D
N1665      N1666   1.319       .  A
N1665     Cu1673   2.078       .  S
N1666     Cu1672   2.059       .  S
C1667      C1668   1.385       .  A
C1667      H1670   1.082       .  S
C1668      C1669   1.391       .  A
C1669      H1671   1.082       .  S
Cu1672     N1675   2.060       .  S
Cu1673     N1683   2.080       .  S
Cu1674     N1676   2.075       .  S
Cu1674     N1682   2.077       .  S
N1675      N1676   1.318       .  A
N1675      C1679   1.339       .  A
N1676      C1677   1.347       .  A
C1677      C1678   1.391       .  A
C1677      H1680   1.082       .  S
C1678      C1679   1.386       .  A
C1679      H1681   1.082       .  S
N1682      N1683   1.325       .  A
N1682      C1686   1.344       .  A
N1683      C1684   1.346       .  A
C1684      C1685   1.380       .  A
C1684      H1687   1.082       .  S
C1685      C1886   1.460       .  S
C1685      C1686   1.378       .  A
C1686      H1688   1.082       .  S
C1689      C1690   1.518       .  S
C1689      C1695   1.520       .  S
C1689      C1693   1.524       .  S
C1689      C1726   1.509       .  S
C1690      H1697   1.086       .  S
C1690      C1691   1.363       .  D
C1691      C1692   1.564       .  S
C1692      C1696   1.551       .  S
C1692      C1694   1.562       .  S
C1692      H1698   1.107       .  S
C1693      H1699   1.079       .  S
C1693      C1694   1.375       .  D
C1695      H1700   1.080       .  S
C1695      C1696   1.372       .  D
C1701      C1702   1.515       .  S
C1701      C1707   1.519       .  S
C1701      C1705   1.524       .  S
C1701      C1716   1.509       .  S
C1702      H1709   1.087       .  S
C1702      C1703   1.363       .  D
C1703      C1704   1.567       .  S
C1704      C1708   1.554       .  S
C1704      C1706   1.565       .  S
C1704      H1710   1.107       .  S
C1705      H1711   1.079       .  S
C1705      C1706   1.376       .  D
C1707      H1712   1.080       .  S
C1707      C1708   1.371       .  D
N1713      N1714   1.319       .  A
N1713      C1717   1.348       .  A
N1713     Cu1721   2.078       .  S
N1714      C1715   1.339       .  A
N1714     Cu1720   2.059       .  S
C1715      C1716   1.385       .  A
C1715      H1718   1.082       .  S
C1716      C1717   1.391       .  A
C1717      H1719   1.082       .  S
Cu1720     N1723   2.060       .  S
Cu1721     N1731   2.080       .  S
Cu1722     N1724   2.076       .  S
Cu1722     N1730   2.077       .  S
N1723      N1724   1.318       .  A
N1723      C1727   1.339       .  A
N1724      C1725   1.348       .  A
C1725      C1726   1.391       .  A
C1725      H1728   1.082       .  S
C1726      C1727   1.386       .  A
C1727      H1729   1.082       .  S
N1730      N1731   1.325       .  A
N1730      C1734   1.344       .  A
N1731      C1732   1.346       .  A
C1732      C1733   1.380       .  A
C1732      H1735   1.082       .  S
C1733      C1763   1.460       .  S
C1733      C1734   1.378       .  A
C1734      H1736   1.082       .  S
O1737     Cu1745   2.006       .  S
O1737      C1747   1.279       .  A
O1738     Cu1745   2.024       .  S
O1738      C1748   1.278       .  A
O1739     Cu1745   2.007       .  S
O1739      C1749   1.277       .  A
O1740     Cu1745   1.956       .  S
O1740      C1750   1.272       .  A
O1741     Cu1746   1.959       .  S
O1741      C1750   1.272       .  A
O1742     Cu1746   2.005       .  S
O1742      C1749   1.276       .  A
O1743     Cu1746   1.996       .  S
O1743      C1748   1.279       .  A
O1744     Cu1746   2.011       .  S
O1744      C1747   1.276       .  A
Cu1745    Cu1746   2.380       .  S
C1747      C1908   1.472       .  S
C1748      C1896   1.475       .  S
C1750      C1764   1.427   1_455  S
O1751     Cu1759   2.011       .  S
O1751      C1761   1.276       .  A
O1752     Cu1759   1.996       .  S
O1752      C1762   1.278       .  A
O1753     Cu1759   2.005       .  S
O1753      C1763   1.276       .  A
O1754     Cu1759   1.959       .  S
O1754      C1764   1.272       .  A
O1755     Cu1760   1.956       .  S
O1755      C1764   1.272       .  A
O1756     Cu1760   2.007       .  S
O1756      C1763   1.277       .  A
O1757     Cu1760   2.024       .  S
O1757      C1762   1.278       .  A
O1758     Cu1760   2.006       .  S
O1758      C1761   1.280       .  A
Cu1759    Cu1760   2.380       .  S
C1761      C1779   1.472       .  S
C1762      C1767   1.475       .  S
C1765      C1766   1.515       .  S
C1765      C1771   1.519       .  S
C1765      C1769   1.524       .  S
C1765      C1792   1.509       .  S
C1766      H1773   1.087       .  S
C1766      C1767   1.363       .  D
C1767      C1768   1.567       .  S
C1768      C1772   1.554       .  S
C1768      C1770   1.565       .  S
C1768      H1774   1.107       .  S
C1769      H1775   1.079       .  S
C1769      C1770   1.376       .  D
C1770      C1894   1.525   1_655  S
C1771      H1776   1.080       .  S
C1771      C1772   1.371       .  D
C1772      C1815   1.506       .  S
C1777      C1778   1.518       .  S
C1777      C1783   1.520       .  S
C1777      C1781   1.524       .  S
C1777      C1802   1.509       .  S
C1778      H1785   1.086       .  S
C1778      C1779   1.363       .  D
C1779      C1780   1.564       .  S
C1780      C1784   1.551       .  S
C1780      C1782   1.562       .  S
C1780      H1786   1.107       .  S
C1781      H1787   1.079       .  S
C1781      C1782   1.375       .  D
C1782      C1906   1.521   1_655  S
C1783      H1788   1.080       .  S
C1783      C1784   1.372       .  D
C1784      C1827   1.506       .  S
N1789      N1790   1.319       .  A
N1789      C1793   1.348       .  A
N1789     Cu1797   2.078       .  S
N1790      C1791   1.339       .  A
C1791      C1792   1.385       .  A
C1791      H1794   1.082       .  S
C1792      C1793   1.391       .  A
C1793      H1795   1.082       .  S
Cu1796     N1799   2.060       .  S
Cu1797     N1807   2.080   1_556  S
Cu1798     N1800   2.076       .  S
Cu1798     N1806   2.077       .  S
N1799      N1800   1.318       .  A
N1799      C1803   1.339       .  A
N1800      C1801   1.348       .  A
C1801      C1802   1.391       .  A
C1801      H1804   1.082       .  S
C1802      C1803   1.386       .  A
C1803      H1805   1.082       .  S
N1806      C1810   1.344       .  A
N1807      C1808   1.346   1_554  A
C1808      C1809   1.380   1_556  A
C1808      H1811   1.082       .  S
C1810      H1812   1.082       .  S
C1813      C1814   1.520   1_545  S
C1813      C1817   1.524       .  S
C1813      C1850   1.508       .  S
C1814      H1821   1.080       .  S
C1814      C1815   1.372       .  D
C1815      C1816   1.551       .  S
C1816      C1818   1.562   1_565  S
C1816      H1822   1.107       .  S
C1817      H1823   1.079       .  S
C1817      C1818   1.375       .  D
C1818      C1942   1.521   1_655  S
C1819      H1824   1.086       .  S
C1819      C1820   1.362       .  D
C1820      C1888   1.472       .  S
C1825      C1826   1.519       .  S
C1825      C1831   1.515       .  S
C1825      C1829   1.524       .  S
C1825      C1840   1.509       .  S
C1826      H1833   1.080       .  S
C1826      C1827   1.371       .  D
C1827      C1828   1.554       .  S
C1828      C1832   1.567       .  S
C1828      C1830   1.565       .  S
C1828      H1834   1.107       .  S
C1829      H1835   1.079       .  S
C1829      C1830   1.376       .  D
C1830      C1954   1.525   1_655  S
C1831      H1836   1.087       .  S
C1831      C1832   1.363       .  D
C1832      C1887   1.475       .  S
N1837      N1838   1.319       .  A
N1837      C1841   1.348       .  A
N1837     Cu1845   2.078       .  S
N1838      C1839   1.339       .  A
N1838     Cu1844   2.059       .  S
C1839      C1840   1.385       .  A
C1839      H1842   1.082       .  S
C1840      C1841   1.391       .  A
C1841      H1843   1.082       .  S
Cu1845     N1855   2.080       .  S
Cu1846     N1854   2.077       .  S
N1847      C1851   1.339       .  A
N1848      C1849   1.347       .  A
C1849      C1850   1.391       .  A
C1849      H1852   1.082       .  S
C1851      H1853   1.082       .  S
N1854      N1855   1.325       .  A
N1855      C1856   1.346       .  A
C1856      C1857   1.380       .  A
C1856      H1859   1.082       .  S
O1861     Cu1869   2.011       .  S
O1861      C1871   1.276       .  A
O1862     Cu1869   1.996       .  S
O1862      C1872   1.279       .  A
O1863     Cu1869   2.005       .  S
O1863      C1873   1.276       .  A
O1864     Cu1869   1.958       .  S
O1864      C1874   1.272       .  A
O1865     Cu1870   1.956       .  S
O1865      C1874   1.272       .  A
O1866     Cu1870   2.008       .  S
O1866      C1873   1.277       .  A
O1867     Cu1870   2.024       .  S
O1867      C1872   1.278       .  A
O1868     Cu1870   2.006       .  S
O1868      C1871   1.279       .  A
Cu1869    Cu1870   2.380       .  S
C1871      C1939   1.472       .  S
C1872      C1951   1.475       .  S
C1874      C1885   1.427   1_455  S
O1875     Cu1883   1.959       .  S
O1875      C1885   1.272       .  A
O1876     Cu1883   2.005       .  S
O1876      C1886   1.276       .  A
O1877     Cu1883   1.996       .  S
O1877      C1887   1.279       .  A
O1878     Cu1883   2.011       .  S
O1878      C1888   1.276       .  A
O1879     Cu1884   2.006       .  S
O1879      C1888   1.279       .  A
O1880     Cu1884   2.024       .  S
O1880      C1887   1.278       .  A
O1881     Cu1884   2.007       .  S
O1881      C1886   1.277       .  A
O1882     Cu1884   1.956       .  S
O1882      C1885   1.272       .  A
Cu1883    Cu1884   2.380       .  S
C1889      C1890   1.519       .  S
C1889      C1895   1.515       .  S
C1889      C1893   1.524       .  S
C1889      C1916   1.509       .  S
C1890      H1897   1.080       .  S
C1890      C1891   1.371       .  D
C1891      C1892   1.554       .  S
C1891      C1944   1.506       .  S
C1892      C1896   1.567       .  S
C1892      C1894   1.564       .  S
C1892      H1898   1.107       .  S
C1893      H1899   1.079       .  S
C1893      C1894   1.376       .  D
C1895      H1900   1.087       .  S
C1895      C1896   1.363       .  D
C1901      C1902   1.520       .  S
C1901      C1907   1.518       .  S
C1901      C1905   1.524       .  S
C1901      C1926   1.508       .  S
C1902      H1909   1.080       .  S
C1902      C1903   1.372       .  D
C1903      C1904   1.551       .  S
C1903      C1956   1.506       .  S
C1904      C1908   1.564       .  S
C1904      C1906   1.562       .  S
C1904      H1910   1.107       .  S
C1905      H1911   1.079       .  S
C1905      C1906   1.375       .  D
C1907      H1912   1.086       .  S
C1907      C1908   1.362       .  D
N1913      N1914   1.319       .  A
N1913      C1917   1.348       .  A
N1913     Cu1921   2.079       .  S
N1914      C1915   1.339       .  A
C1915      C1916   1.385       .  A
C1915      H1918   1.082       .  S
C1916      C1917   1.391       .  A
C1917      H1919   1.082       .  S
Cu1920     N1923   2.060       .  S
Cu1921     N1931   2.080   1_556  S
Cu1922     N1924   2.076       .  S
Cu1922     N1930   2.077       .  S
N1923      N1924   1.318       .  A
N1923      C1927   1.339       .  A
N1924      C1925   1.347       .  A
C1925      C1926   1.391       .  A
C1925      H1928   1.082       .  S
C1926      C1927   1.386       .  A
C1927      H1929   1.082       .  S
N1930      C1934   1.344       .  A
N1931      C1932   1.346   1_554  A
C1932      C1933   1.380   1_556  A
C1932      H1935   1.082       .  S
C1934      H1936   1.082       .  S
C1937      C1943   1.520   1_545  S
C1937      C1941   1.524       .  S
C1937      C1974   1.509       .  S
C1938      H1945   1.086       .  S
C1938      C1939   1.362       .  D
C1940      C1944   1.551       .  S
C1940      C1942   1.562   1_565  S
C1940      H1946   1.107       .  S
C1941      H1947   1.079       .  S
C1941      C1942   1.375       .  D
C1943      H1948   1.080       .  S
C1943      C1944   1.372       .  D
C1949      C1950   1.515       .  S
C1949      C1955   1.519       .  S
C1949      C1953   1.524       .  S
C1949      C1964   1.509       .  S
C1950      H1957   1.087       .  S
C1950      C1951   1.363       .  D
C1951      C1952   1.567       .  S
C1952      C1956   1.554       .  S
C1952      C1954   1.564       .  S
C1952      H1958   1.107       .  S
C1953      H1959   1.079       .  S
C1953      C1954   1.376       .  D
C1955      H1960   1.080       .  S
C1955      C1956   1.371       .  D
N1961      N1962   1.319       .  A
N1961      C1965   1.348       .  A
N1961     Cu1969   2.079       .  S
N1962      C1963   1.339       .  A
N1962     Cu1968   2.059       .  S
C1963      C1964   1.385       .  A
C1963      H1966   1.082       .  S
C1964      C1965   1.391       .  A
C1965      H1967   1.082       .  S
Cu1968     N1971   2.060       .  S
Cu1969     N1979   2.080       .  S
Cu1970     N1978   2.077       .  S
N1972      C1973   1.348       .  A
C1973      C1974   1.391       .  A
C1973      H1976   1.082       .  S
C1974      C1975   1.386       .  A
N1978      C1982   1.344       .  A
N1979      C1980   1.346       .  A
C1980      H1983   1.082       .  S
C1981      C1982   1.378       .  A
C1982      H1984   1.082       .  S
