geometry optimzed in LAMMPS
_audit_creation_date              2020-12-01 
_audit_creation_method            'lammps2cif' 
_symmetry_space_group_name_H-M    'P1' 
_symmetry_Int_Tables_number       1 
_symmetry_cell_setting            triclinic 
loop_ 
_symmetry_equiv_pos_as_xyz 
  x,y,z 
_cell_length_a                    32.15242809 
_cell_length_b                    32.49193286487347 
_cell_length_c                    37.81125885416283 
_cell_angle_alpha                 89.32964055272886 
_cell_angle_beta                  90.6326195875478 
_cell_angle_gamma                 90.66341105342337 
loop_ 
_atom_site_label 
_atom_site_type_symbol 
_atom_site_fract_x 
_atom_site_fract_y 
_atom_site_fract_z 
_atom_site_charge 
N1          N  0.00372558  0.74241212  0.35091749    -0.03000
C2          C  0.01395988  0.70266816  0.34538559    -0.00400
C3          C  0.03352886  0.69089532  0.03697922    -0.23300
C4          C  0.02568972  0.71710349  0.06447016    -0.23500
C5          C  0.01598299  0.75481549  0.04937830    -0.00500
H6          H  0.04137020  0.65866840  0.03926854     0.13200
H7          H  0.02760404  0.70948182  0.09234939     0.13300
N8          N  0.02781883  0.20619892  0.06387724    -0.03000
C9          C  0.04404667  0.24344347  0.07327420    -0.00400
C10         C  0.06393475  0.26166707  0.04480066    -0.23300
C11         C  0.06099162  0.23444595  0.01731641    -0.23500
C12         C  0.03881292  0.20056412  0.02956675    -0.00500
H13         H  0.07867733  0.29176991  0.04400440     0.13200
H14         H  0.07903872  0.23218004  0.32580865     0.13300
N15         N  0.72597129  0.95690315  0.35305261    -0.03000
C16         C  0.76672301  0.95148280  0.34611530    -0.00400
C17         C  0.79021343  0.95387926  0.04158678    -0.23300
C18         C  0.76158302  0.94826146  0.06823689    -0.23500
C19         C  0.72286201  0.95406149  0.05294889    -0.00500
H20         H  0.82368476  0.95207466  0.04427253     0.13200
H21         H  0.76833681  0.94187380  0.09584172     0.13300
N22         N  0.26116139  0.96714781  0.05954982    -0.03000
C23         C  0.22022855  0.96468451  0.06750720    -0.00400
C24         C  0.19660598  0.96843156  0.03681388    -0.23300
C25         C  0.22407081  0.97416120  0.00930049    -0.23500
C26         C  0.26348253  0.97389420  0.02423117    -0.00500
H27         H  0.16300586  0.96884216  0.03486105     0.13200
H28         H  0.21580532  0.99660066  0.31322017     0.13300
N29         N  0.50004031  0.70371038  0.33768359    -0.03000
C30         C  0.49125586  0.74359782  0.33014623    -0.00400
C31         C  0.50387383  0.76661234  0.02674089    -0.23300
C32         C  0.51588173  0.74041297  0.05381536    -0.23500
C33         C  0.52039922  0.70205087  0.03901891    -0.00500
H34         H  0.49900355  0.79940074  0.02874645     0.13200
H35         H  0.52049629  0.74855696  0.08124186     0.13300
N36         N  0.50310674  0.24517747  0.04821361    -0.03000
C37         C  0.49897303  0.20420590  0.05425169    -0.00400
C38         C  0.49203048  0.18400653  0.02269220    -0.23300
C39         C  0.49185982  0.21372687  0.99633969    -0.23500
C40         C  0.49878486  0.25090912  0.01280864    -0.00500
H41         H  0.48752392  0.15123547  0.01925575     0.13200
H42         H  0.47610187  0.21066897  0.30627755     0.13300
N43         N  0.26195558  0.47641395  0.04984934    -0.03000
C44         C  0.30315844  0.48388019  0.05473891    -0.00400
C45         C  0.32327860  0.48269639  0.02263854    -0.23300
C46         C  0.29330068  0.47472313  0.99721670    -0.23500
C47         C  0.25577980  0.47062365  0.01458813    -0.00500
H48         H  0.35615484  0.48764315  0.01815205     0.13200
H49         H  0.29512480  0.41931370  0.31575637     0.13300
N50         N  0.80046278  0.47625829  0.34714064    -0.03000
C51         C  0.75961684  0.47265029  0.33872160    -0.00400
C52         C  0.73872981  0.49205777  0.03187449    -0.23300
C53         C  0.76826836  0.49985702  0.05768124    -0.23500
C54         C  0.80651029  0.49635988  0.04171249    -0.00500
H55         H  0.70532909  0.49298434  0.03494109     0.13200
H56         H  0.76251269  0.50737572  0.08498714     0.13300
Zn57       Zn  0.56901732  0.42574993  0.20062863     1.49700
Zn58       Zn  0.57505496  0.52315399  0.19616507     1.49400
Zn59       Zn  0.51920837  0.47363490  0.14282462     1.49100
Zn60       Zn  0.48811151  0.47860395  0.22302231     1.49500
O61         O  0.53742693  0.47562966  0.19153735    -1.83700
O62         O  0.62783051  0.43823047  0.21530752    -0.74300
O63         O  0.57226325  0.56035878  0.15206328    -0.74100
O64         O  0.52670648  0.41825403  0.12197088    -0.73600
O65         O  0.63329673  0.50634432  0.21332747    -0.74300
O66         O  0.56420750  0.38383849  0.16164565    -0.73900
O67         O  0.54146507  0.51957932  0.11290623    -0.74500
O68         O  0.43289701  0.48189950  0.19393802    -0.73900
O69         O  0.55344710  0.55880671  0.23415935    -0.74700
O70         O  0.45852140  0.48216951  0.13967255    -0.74000
O71         O  0.49343644  0.53146694  0.25224629    -0.74500
O72         O  0.48653321  0.42762983  0.25648223    -0.74400
O73         O  0.54469607  0.39611411  0.24171775    -0.74200
C74         C  0.64833543  0.47121875  0.22145107     0.77600
C75         C  0.55629464  0.55453100  0.12142256     0.78100
C76         C  0.54360691  0.38515924  0.13276468     0.77000
C77         C  0.42793428  0.48429871  0.16038860     0.77400
C78         C  0.52146951  0.55970769  0.25356432     0.78500
C79         C  0.51238894  0.39824758  0.26060698     0.77600
Zn80       Zn  0.49197954  0.93443367  0.17065552     1.49700
Zn81       Zn  0.54582416  0.01340179  0.19833170     1.49400
Zn82       Zn  0.44947497  0.01862005  0.20179000     1.49100
Zn83       Zn  0.49618046  0.95855502  0.25289294     1.49500
O84         O  0.49568012  0.98045158  0.20531874    -1.83700
O85         O  0.54342247  0.93549422  0.13823158    -0.74300
O86         O  0.53434961  0.06960556  0.17855400    -0.74100
O87         O  0.41159395  0.99665475  0.16580062    -0.73600
O88         O  0.57859778  0.98866637  0.16044139    -0.74300
O89         O  0.43820997  0.94098568  0.14130224    -0.73900
O90         O  0.46599640  0.07432960  0.18040729    -0.74500
O91         O  0.44608196  0.97483205  0.28052496    -0.73900
O92         O  0.58428487  0.01337863  0.24056693    -0.74700
O93         O  0.41349094  0.01971034  0.24587724    -0.74000
O94         O  0.55020720  0.97096518  0.27701395    -0.74500
O95         O  0.49338684  0.89769066  0.25214942    -0.74400
O96         O  0.49000115  0.87792854  0.19609870    -0.74200
C97         C  0.57520887  0.95952090  0.13852570     0.77600
C98         C  0.50123281  0.08868213  0.17065556     0.78100
C99         C  0.40973797  0.96797385  0.14344953     0.77000
C100        C  0.41498758  0.99764297  0.27401065     0.77400
C101        C  0.58249271  0.99179883  0.26879452     0.78500
C102        C  0.49110949  0.86962599  0.22916406     0.77600
Zn103      Zn  0.95822306  0.92777558  0.20465378     1.49700
Zn104      Zn  0.04346014  0.96995109  0.23821164     1.49400
Zn105      Zn  0.01382417  0.98238394  0.15628298     1.49100
Zn106      Zn  0.96160966  0.02297973  0.21600091     1.49500
O107        O  0.99510900  0.97572484  0.20459221    -1.83700
O108        O  0.97842535  0.88961734  0.24144949    -0.74300
O109        O  0.09854345  0.96713408  0.20992514    -0.74100
O110        O  0.99863494  0.93541562  0.12471593    -0.73600
O111        O  0.03652244  0.91505082  0.26568686    -0.74300
O112        O  0.96256912  0.89420611  0.16000982    -0.73900
O113        O  0.07488065  0.98016400  0.15546110    -0.74500
O114        O  0.96142341  0.06614001  0.17690393    -0.73900
O115        O  0.04579080  0.01980341  0.27313475    -0.74700
O116        O  0.99962887  0.03696879  0.13553205    -0.74000
O117        O  0.98859789  0.05233769  0.25588986    -0.74500
O118        O  0.90454576  0.00633134  0.23329633    -0.74400
O119        O  0.89961157  0.94011281  0.22073898    -0.74200
C120        C  0.00853465  0.88686614  0.26324855     0.77600
C121        C  0.10451759  0.97248281  0.17678114     0.78100
C122        C  0.98156046  0.90073623  0.13102306     0.77000
C123        C  0.98032629  0.06761033  0.14748832     0.77400
C124        C  0.02068575  0.04998805  0.27569914     0.78500
C125        C  0.88452137  0.97224083  0.23445979     0.77600
Zn126      Zn  0.08180797  0.51253373  0.21027019     1.49700
Zn127      Zn  0.03574099  0.45911856  0.15147376     1.49400
Zn128      Zn  0.02453157  0.43181644  0.23261262     1.49100
Zn129      Zn  0.98597496  0.51735294  0.20014246     1.49500
O130        O  0.03217883  0.47943190  0.19922787    -1.83700
O131        O  0.12319499  0.51312946  0.16990580    -0.74300
O132        O  0.03226434  0.39802411  0.15084024    -0.74100
O133        O  0.07417576  0.43021283  0.26734101    -0.73600
O134        O  0.09109500  0.47247837  0.13103638    -0.74300
O135        O  0.11114860  0.48511971  0.25016998    -0.73900
O136        O  0.02275274  0.37598334  0.20605396    -0.74500
O137        O  0.94674968  0.49744734  0.23590868    -0.73900
O138        O  0.98861749  0.47829626  0.12032592    -0.74700
O139        O  0.97070542  0.44008107  0.26095585    -0.74000
O140        O  0.95317804  0.51958782  0.15473332    -0.74500
O141        O  0.00099502  0.57340932  0.21867916    -0.74400
O142        O  0.06840810  0.56934046  0.22956439    -0.74200
C143        C  0.12282274  0.49315840  0.14105584     0.77600
C144        C  0.02726106  0.36893937  0.17311566     0.78100
C145        C  0.10571537  0.45423390  0.27053954     0.77000
C146        C  0.94381383  0.46876640  0.25872305     0.77400
C147        C  0.95717227  0.50065486  0.12572074     0.78500
C148        C  0.03420636  0.58844077  0.23215198     0.77600
C149        C  0.87506703  0.46820105  0.05820144    -0.19900
C150        C  0.84723561  0.50089024  0.06005224    -0.06400
C151        C  0.85824888  0.53589191  0.08010537     0.14400
C152        C  0.89540938  0.53577203  0.09989822    -0.19900
C153        C  0.92262951  0.50221412  0.09931502    -0.06400
C154        C  0.91279612  0.46846873  0.07706959     0.14400
C155        C  0.94042161  0.43146032  0.07421507    -0.23300
H156        H  0.86646114  0.44140334  0.04287222     0.15700
H157        H  0.90289844  0.56204182  0.11631586     0.15700
C158        C  0.83210036  0.57407498  0.08093178    -0.23200
H159        H  0.92707552  0.40796446  0.05609885     0.06000
H160        H  0.94445718  0.41660901  0.10057089     0.09200
H161        H  0.97112568  0.44099560  0.06354548     0.09200
H162        H  0.79922206  0.56339299  0.40010539     0.09200
H163        H  0.84620078  0.59267283  0.40559225     0.09200
H164        H  0.81761073  0.57531062  0.44394250     0.05900
C165        C  0.88560123  0.43424613  0.29083290    -0.19900
C166        C  0.90815078  0.47033371  0.28302530    -0.06400
C167        C  0.89501721  0.50827741  0.29724836     0.14400
C168        C  0.85873171  0.50919903  0.31727532    -0.19900
C169        C  0.83554035  0.47344839  0.32409408    -0.06400
C170        C  0.84977129  0.43527026  0.31170662     0.14400
C171        C  0.82503446  0.40477737  0.97675082    -0.23300
H172        H  0.89591954  0.40509848  0.28056197     0.15700
H173        H  0.84839080  0.53798277  0.32823279     0.15700
C174        C  0.91966468  0.54780790  0.29258751    -0.23200
H175        H  0.81192493  0.39160203  0.95201138     0.06000
H176        H  0.79962300  0.40874458  0.99575514     0.09200
H177        H  0.84722531  0.38259634  0.98880195     0.09200
H178        H  0.91879787  0.55811091  0.26453907     0.09200
H179        H  0.95238393  0.54317506  0.30131949     0.09200
H180        H  0.90682018  0.57315247  0.30847995     0.05900
C181        C  0.74299831  0.49951119  0.27861379    -0.19900
C182        C  0.74165086  0.46657018  0.30295112    -0.06400
C183        C  0.71636386  0.43195816  0.29540929     0.14400
C184        C  0.69060640  0.43255698  0.26535218    -0.19900
C185        C  0.68700361  0.46797013  0.24368639    -0.06400
C186        C  0.71558482  0.50097613  0.24921966     0.14400
C187        C  0.71690543  0.53815310  0.22505858    -0.23300
H188        H  0.76296297  0.52577830  0.28430178     0.15700
H189        H  0.67001924  0.40636969  0.26117181     0.15700
C190        C  0.70976060  0.40674494  0.98836533    -0.23200
H191        H  0.74353303  0.55887197  0.23165359     0.06000
H192        H  0.68815882  0.55634664  0.22759087     0.09200
H193        H  0.72046880  0.52823534  0.19726365     0.09200
H194        H  0.67748065  0.40415899  0.99838179     0.09200
H195        H  0.73077184  0.41039565  0.01151907     0.09200
H196        H  0.71774843  0.37759632  0.97513390     0.05900
C197        C  0.15848017  0.40873161  0.29847093    -0.19900
C198        C  0.13806089  0.44662907  0.29777341    -0.06400
C199        C  0.14604438  0.49387618  0.98236606     0.14400
C200        C  0.18361549  0.49468678  0.00172756    -0.19900
C201        C  0.21461738  0.46543966  0.99626906    -0.06400
C202        C  0.19526267  0.40324361  0.31844313     0.14400
C203        C  0.21708368  0.36248546  0.31686259    -0.23300
H204        H  0.14701956  0.38417807  0.28167702     0.15700
H205        H  0.18960822  0.51964380  0.01986136     0.15700
C206        C  0.11429983  0.52677347  0.98848389    -0.23200
H207        H  0.19902944  0.33977350  0.30100459     0.06000
H208        H  0.22133960  0.34932078  0.34379044     0.09200
H209        H  0.24783394  0.36639672  0.30427221     0.09200
H210        H  0.08432949  0.51220223  0.99630972     0.09200
H211        H  0.10942758  0.54538037  0.96404275     0.09200
H212        H  0.12429417  0.54802855  0.00983571     0.05900
C213        C  0.17144801  0.45107267  0.10756359    -0.19900
C214        C  0.16085206  0.49027174  0.11970446    -0.06400
C215        C  0.18632114  0.52453511  0.11099246     0.14400
C216        C  0.22091429  0.51882305  0.08923739    -0.19900
C217        C  0.23013047  0.47987233  0.07592779    -0.06400
C218        C  0.20587734  0.44546659  0.08593045     0.14400
C219        C  0.21647970  0.40286254  0.07397117    -0.23300
H220        H  0.15248278  0.42459698  0.11497329     0.15700
H221        H  0.23990049  0.54500871  0.08122581     0.15700
C222        C  0.17601336  0.56719296  0.12299883    -0.23200
H223        H  0.19547819  0.37915997  0.08574069     0.06000
H224        H  0.21334928  0.40086433  0.04490279     0.09200
H225        H  0.24885464  0.39543860  0.08196844     0.09200
H226        H  0.17756078  0.56857633  0.15228926     0.09200
H227        H  0.14425434  0.57538494  0.11370553     0.09200
H228        H  0.19817285  0.59056581  0.11232693     0.05900
C229        C  0.32699378  0.45765638  0.11371096    -0.19900
C230        C  0.32516730  0.49038691  0.08910309    -0.06400
C231        C  0.35130124  0.52515475  0.09426439     0.14400
C232        C  0.38155102  0.52436149  0.12128011    -0.19900
C233        C  0.38661986  0.48969975  0.14333339    -0.06400
C234        C  0.35775169  0.45676916  0.14064073     0.14400
C235        C  0.36153864  0.41936830  0.16427009    -0.23300
H236        H  0.30693274  0.43105486  0.10991591     0.15700
H237        H  0.40322572  0.55000552  0.12361405     0.15700
C238        C  0.34917100  0.56292621  0.07081248    -0.23200
H239        H  0.33675667  0.39621369  0.15855504     0.06000
H240        H  0.35887783  0.42858144  0.19233143     0.09200
H241        H  0.39212891  0.40466171  0.16037030     0.09200
H242        H  0.34456212  0.59049112  0.08733903     0.09200
H243        H  0.32305294  0.56158024  0.05145486     0.09200
H244        H  0.37870133  0.56670635  0.05614271     0.05900
C245        C  0.53837744  0.16773620  0.10131703    -0.19900
C246        C  0.50032542  0.18295824  0.08908005    -0.06400
C247        C  0.46350550  0.17137382  0.10662308     0.14400
C248        C  0.46537268  0.14349699  0.13530373    -0.19900
C249        C  0.50314710  0.12552513  0.14631416    -0.06400
C250        C  0.54050609  0.13899878  0.12939886     0.14400
C251        C  0.58274806  0.12206576  0.13892255    -0.23300
H252        H  0.56638663  0.17634078  0.08719636     0.15700
H253        H  0.43659738  0.13384270  0.14770267     0.15700
C254        C  0.42194071  0.18705610  0.09403663    -0.23200
H255        H  0.60800983  0.13761739  0.12384019     0.06000
H256        H  0.58396662  0.08885432  0.13252667     0.09200
H257        H  0.58943158  0.12679234  0.16746183     0.09200
H258        H  0.41610713  0.17777964  0.06623753     0.09200
H259        H  0.42169985  0.22110529  0.09566743     0.09200
H260        H  0.39606622  0.17464241  0.11035842     0.05900
C261        C  0.46644612  0.31065619  0.98190478    -0.19900
C262        C  0.50261336  0.29087058  0.99385428    -0.06400
C263        C  0.53937035  0.31120053  0.32369786     0.14400
C264        C  0.54148957  0.34747101  0.30323046    -0.19900
C265        C  0.50590318  0.36457360  0.28709621    -0.06400
C266        C  0.46687466  0.34508655  0.29251103     0.14400
C267        C  0.42791883  0.36064779  0.27464813    -0.23300
H268        H  0.43643867  0.29673951  0.98760687     0.15700
H269        H  0.57161005  0.36176249  0.29858424     0.15700
C270        C  0.57924302  0.29205945  0.33671165    -0.23200
H271        H  0.40085425  0.34914166  0.95824566     0.06000
H272        H  0.43192646  0.36107926  0.24550774     0.09200
H273        H  0.42622548  0.39846427  0.96052789     0.09200
H274        H  0.58141537  0.26011498  0.32685296     0.09200
H275        H  0.58417792  0.28402342  0.02503635     0.09200
H276        H  0.60701484  0.30954124  0.32741654     0.05900
C277        C  0.55040214  0.27915496  0.09035258    -0.19900
C278        C  0.51129106  0.27692142  0.07359592    -0.06400
C279        C  0.48242569  0.30850191  0.07877481     0.14400
C280        C  0.49464157  0.34336219  0.09760078    -0.19900
C281        C  0.53453809  0.34700994  0.11287572    -0.06400
C282        C  0.56235504  0.31373256  0.11031257     0.14400
C283        C  0.60492282  0.31496896  0.12729525    -0.23300
H284        H  0.57219478  0.25448368  0.08652962     0.15700
H285        H  0.47223785  0.36768334  0.10094835     0.15700
C286        C  0.43816531  0.30593750  0.06552817    -0.23200
H287        H  0.62311073  0.28718182  0.12100080     0.06000
H288        H  0.60209299  0.31616416  0.15648456     0.09200
H289        H  0.62248190  0.34241293  0.11763563     0.09200
H290        H  0.41675653  0.30758260  0.08829795     0.09200
H291        H  0.43120355  0.27685960  0.05151981     0.09200
H292        H  0.43173015  0.33226155  0.04738660     0.05900
C293        C  0.45325396  0.77914859  0.28176218    -0.19900
C294        C  0.49113793  0.76398630  0.29493809    -0.06400
C295        C  0.52874362  0.77837131  0.27994633     0.14400
C296        C  0.52764687  0.80960717  0.25390305    -0.19900
C297        C  0.48988071  0.82698731  0.24284935    -0.06400
C298        C  0.45220530  0.81010428  0.25553584     0.14400
C299        C  0.41098728  0.82682656  0.24312598    -0.23300
H300        H  0.42450136  0.76927126  0.29409142     0.15700
H301        H  0.55653996  0.82329206  0.24470164     0.15700
C302        C  0.57018732  0.76370651  0.29379168    -0.23200
H303        H  0.38448085  0.81054125  0.25594489     0.06000
H304        H  0.40786241  0.82295840  0.21408096     0.09200
H305        H  0.40895990  0.85999976  0.24931404     0.09200
H306        H  0.57272383  0.73013340  0.28963645     0.09200
H307        H  0.57333223  0.77026896  0.32245837     0.09200
H308        H  0.59650100  0.77914793  0.27998831     0.05900
C309        C  0.50544233  0.62989209  0.05670571    -0.19900
C310        C  0.53212345  0.66402047  0.05891757    -0.06400
C311        C  0.56915081  0.66091852  0.07933768     0.14400
C312        C  0.57738738  0.62427162  0.09836695    -0.19900
C313        C  0.55019111  0.59013196  0.09664575    -0.06400
C314        C  0.51402909  0.59296949  0.07467774     0.14400
C315        C  0.48284565  0.55817896  0.07098269    -0.23300
H316        H  0.47703382  0.63241754  0.04121584     0.15700
H317        H  0.60502741  0.62241054  0.11494924     0.15700
C318        C  0.60055846  0.69565598  0.08045378    -0.23200
H319        H  0.45611087  0.56668937  0.05366758     0.06000
H320        H  0.47032585  0.54970796  0.09729167     0.09200
H321        H  0.49777406  0.53119986  0.05889954     0.09200
H322        H  0.58711539  0.72291883  0.09319906     0.09200
H323        H  0.61021670  0.70392371  0.05314605     0.09200
H324        H  0.62883786  0.68700599  0.09581817     0.05900
C325        C  0.54450248  0.65114105  0.31299221    -0.19900
C326        C  0.50559967  0.67004446  0.31379016    -0.06400
C327        C  0.47124642  0.65080471  0.29695206     0.14400
C328        C  0.47704223  0.61414261  0.27835051    -0.19900
C329        C  0.51630989  0.59588461  0.27660843    -0.06400
C330        C  0.55036782  0.61427588  0.29487307     0.14400
C331        C  0.59246170  0.59429743  0.29697051    -0.23300
H332        H  0.57013318  0.66489920  0.32768162     0.15700
H333        H  0.45086291  0.59996032  0.26467885     0.15700
C334        C  0.43324248  0.66961132  0.97230635    -0.23200
H335        H  0.61407223  0.61113203  0.31496677     0.06000
H336        H  0.60700530  0.59400187  0.27052683     0.09200
H337        H  0.58911372  0.56230661  0.30729487     0.09200
H338        H  0.43113080  0.69973439  0.95864619     0.09200
H339        H  0.42826059  0.67349364  0.00107342     0.09200
H340        H  0.40773363  0.64975185  0.96179162     0.05900
C341        C  0.18217921  0.92876513  0.11573345    -0.19900
C342        C  0.20181602  0.96483059  0.10336571    -0.06400
C343        C  0.19534305  0.00214549  0.12130006     0.14400
C344        C  0.16724018  0.00296532  0.14958611    -0.19900
C345        C  0.14554265  0.96736619  0.16037406    -0.06400
C346        C  0.15464492  0.92950099  0.14433797     0.14400
C347        C  0.13281809  0.89031863  0.15577300    -0.23300
H348        H  0.18604959  0.90041538  0.10137897     0.15700
H349        H  0.15933789  0.03217693  0.16118646     0.15700
C350        C  0.21533939  0.04177964  0.10883314    -0.23200
H351        H  0.14319860  0.86347322  0.14038084     0.06000
H352        H  0.09868498  0.89314626  0.15203763     0.09200
H353        H  0.13967892  0.88413567  0.18417048     0.09200
H354        H  0.20681676  0.04803855  0.08076332     0.09200
H355        H  0.24955270  0.03953532  0.11148510     0.09200
H356        H  0.20536647  0.06837725  0.12472498     0.05900
C357        C  0.34971584  0.02038419  0.96719823    -0.19900
C358        C  0.37834712  0.99597676  0.29805634    -0.06400
C359        C  0.36814981  0.96020726  0.31844135     0.14400
C360        C  0.33037707  0.95829032  0.33669354    -0.19900
C361        C  0.30295480  0.98042358  0.00478447    -0.06400
C362        C  0.31225219  0.01713909  0.98588311     0.14400
C363        C  0.28412337  0.05392896  0.98552782    -0.23300
H364        H  0.35592837  0.04811782  0.95183428     0.15700
H365        H  0.32215365  0.93053900  0.35124773     0.15700
C366        C  0.39563807  0.92289201  0.32018846    -0.23200
H367        H  0.27333615  0.06039083  0.95804961     0.06000
H368        H  0.30166869  0.08117094  0.99543263     0.09200
H369        H  0.25654144  0.04980643  0.00252464     0.09200
H370        H  0.42599550  0.93103548  0.33265279     0.09200
H371        H  0.40045132  0.91100270  0.29319838     0.09200
H372        H  0.38171631  0.89751163  0.33623527     0.05900
C373        C  0.34992428  0.93055975  0.11634086    -0.19900
C374        C  0.37291250  0.96720917  0.12000904    -0.06400
C375        C  0.35808840  0.00398235  0.10403993     0.14400
C376        C  0.32013246  0.00325690  0.08576355    -0.19900
C377        C  0.29636280  0.96711764  0.08319232    -0.06400
C378        C  0.31170059  0.93012082  0.09797529     0.14400
C379        C  0.28843225  0.89010402  0.09340775    -0.23300
H380        H  0.36141009  0.90249465  0.12855409     0.15700
H381        H  0.30907547  0.03089197  0.07255069     0.15700
C382        C  0.38268753  0.04386949  0.10502540    -0.23200
H383        H  0.30598258  0.86377429  0.10481693     0.06000
H384        H  0.28284239  0.88412859  0.06490166     0.09200
H385        H  0.25831721  0.89145821  0.10713234     0.09200
H386        H  0.41451992  0.03891527  0.09493408     0.09200
H387        H  0.38453833  0.05576990  0.13236834     0.09200
H388        H  0.36801527  0.06817035  0.08834128     0.05900
C389        C  0.79322320  0.92888289  0.28804306    -0.19900
C390        C  0.78796931  0.96066538  0.31225230    -0.06400
C391        C  0.80938863  0.99827430  0.30698961     0.14400
C392        C  0.83728815  0.00243881  0.27881157    -0.19900
C393        C  0.84583637  0.96933498  0.25628418    -0.06400
C394        C  0.82159237  0.93263813  0.26000994     0.14400
C395        C  0.82598211  0.89660704  0.23560693    -0.23300
H396        H  0.77536087  0.91010599  0.95783312     0.15700
H397        H  0.85484539  0.03095112  0.27622418     0.15700
C398        C  0.80490053  0.03325750  0.33244588    -0.23200
H399        H  0.80191716  0.87250613  0.24067097     0.06000
H400        H  0.85668660  0.88195699  0.23963625     0.09200
H401        H  0.82229695  0.90708308  0.20770150     0.09200
H402        H  0.81450615  0.02325309  0.35946249     0.09200
H403        H  0.77212508  0.04325921  0.33287155     0.09200
H404        H  0.82442930  0.06029235  0.32485221     0.05900
C405        C  0.66662856  0.91830285  0.08675318    -0.19900
C406        C  0.68341099  0.95515614  0.07286461    -0.06400
C407        C  0.66337668  0.99265788  0.07962538     0.14400
C408        C  0.62640919  0.99218276  0.09881623    -0.19900
C409        C  0.60958022  0.95553168  0.11299934    -0.06400
C410        C  0.62992997  0.91801748  0.10683238     0.14400
C411        C  0.61443681  0.87817903  0.12291410    -0.23300
H412        H  0.68283313  0.88974879  0.08254064     0.15700
H413        H  0.61152824  0.02121124  0.10418590     0.15700
C414        C  0.68135587  0.03406623  0.06921106    -0.23200
H415        H  0.63479696  0.85203420  0.11631544     0.06000
H416        H  0.58267766  0.87106651  0.11275687     0.09200
H417        H  0.61370223  0.88074648  0.15216352     0.09200
H418        H  0.71198532  0.03203088  0.05628233     0.09200
H419        H  0.68585323  0.05304082  0.09322322     0.09200
H420        H  0.65946101  0.05010298  0.05095787     0.05900
C421        C  0.68241771  0.00753806  0.32187777    -0.19900
C422        C  0.69315863  0.96637662  0.32842552    -0.06400
C423        C  0.66812082  0.93445505  0.31465574     0.14400
C424        C  0.63194205  0.94426451  0.29586290    -0.19900
C425        C  0.62045679  0.98529073  0.28997086    -0.06400
C426        C  0.64627529  0.01747146  0.30248393     0.14400
C427        C  0.63489713  0.06188054  0.29677347    -0.23300
H428        H  0.70153287  0.03185080  0.33290325     0.15700
H429        H  0.61260678  0.91963488  0.28529779     0.15700
C430        C  0.67953397  0.88995762  0.31984491    -0.23200
H431        H  0.65776475  0.08297999  0.30959968     0.06000
H432        H  0.60385059  0.06759608  0.30819223     0.09200
H433        H  0.63411416  0.06931501  0.26805935     0.09200
H434        H  0.68119549  0.88200130  0.34832921     0.09200
H435        H  0.71012348  0.88424813  0.30784054     0.09200
H436        H  0.65640730  0.86893269  0.30726338     0.05900
C437        C  0.01431238  0.12414684  0.28805604    -0.19900
C438        C  0.02836749  0.08548837  0.29998033    -0.06400
C439        C  0.04601587  0.08249176  0.33441651     0.14400
C440        C  0.04951993  0.11825030  0.35545096    -0.19900
C441        C  0.02959687  0.16390311  0.00724244    -0.06400
C442        C  0.00874321  0.16808449  0.97425352     0.14400
C443        C  0.98836158  0.20750490  0.96210781    -0.23300
H444        H  0.98986103  0.13834325  0.92638795     0.15700
H445        H  0.06388378  0.11620865  0.38145886     0.15700
C446        C  0.06021643  0.04183324  0.34938518    -0.23200
H447        H  0.00381257  0.21930360  0.93784517     0.06000
H448        H  0.98928555  0.23195007  0.98225681     0.09200
H449        H  0.95504470  0.20128358  0.95592909     0.09200
H450        H  0.08582193  0.02972247  0.33319825     0.09200
H451        H  0.03383112  0.01947611  0.34944640     0.09200
H452        H  0.07192316  0.04481024  0.37700396     0.05900
C453        C  0.03322994  0.16516086  0.11802824    -0.19900
C454        C  0.01041833  0.17563234  0.08755057    -0.06400
C455        C  0.97338836  0.15337794  0.07948149     0.14400
C456        C  0.96262240  0.11865960  0.10013297    -0.19900
C457        C  0.98685362  0.10736643  0.12958292    -0.06400
C458        C  0.02179747  0.13154760  0.13925921     0.14400
C459        C  0.04832265  0.12065643  0.17113372    -0.23300
H460        H  0.06145329  0.18212389  0.12421869     0.15700
H461        H  0.93563478  0.10011866  0.09298199     0.15700
C462        C  0.94449506  0.16574433  0.04976805    -0.23200
H463        H  0.07449854  0.14285976  0.17483975     0.06000
H464        H  0.06166077  0.08955468  0.16798935     0.09200
H465        H  0.02907422  0.12092004  0.19532660     0.09200
H466        H  0.95413827  0.19510284  0.03692989     0.09200
H467        H  0.91278816  0.17019116  0.06030655     0.09200
H468        H  0.94315860  0.14113606  0.02963626     0.05900
C469        C  0.99872795  0.27789189  0.11675469    -0.19900
C470        C  0.03863032  0.26486136  0.10757241    -0.07200
C471        C  0.07339055  0.27951400  0.12725201     0.14400
C472        C  0.06785354  0.31007583  0.15278776    -0.19900
C473        C  0.02855291  0.32666335  0.15892869    -0.06400
C474        C  0.99337531  0.30901207  0.14196619     0.14400
C475        C  0.95049285  0.32490996  0.14892618    -0.23300
H476        H  0.97204957  0.26642119  0.10195035     0.15700
H477        H  0.09485354  0.32370267  0.16572395     0.15700
C478        C  0.11666287  0.26422265  0.12047435    -0.23200
H479        H  0.92632582  0.30802790  0.13347409     0.06000
H480        H  0.94879355  0.35800287  0.14158959     0.09200
H481        H  0.94340880  0.32113534  0.17746051     0.09200
H482        H  0.12637349  0.27223470  0.09320049     0.09200
H483        H  0.11755666  0.23033662  0.12418523     0.09200
H484        H  0.13985256  0.27807296  0.13893667     0.05900
C485        C  0.96370855  0.82966493  0.11148885    -0.19900
C486        C  0.98736263  0.86586709  0.10611826    -0.06400
C487        C  0.01988722  0.86536230  0.08081113     0.14400
C488        C  0.02855195  0.82863259  0.06322984    -0.19900
C489        C  0.00556294  0.79243543  0.06944916    -0.06400
C490        C  0.97239892  0.79309127  0.09367946     0.14400
C491        C  0.94567642  0.75551946  0.10081920    -0.23300
H492        H  0.93881141  0.82955271  0.13056867     0.15700
H493        H  0.05418751  0.82794052  0.04491923     0.15700
C494        C  0.04671667  0.90260760  0.07246335    -0.23200
H495        H  0.91956748  0.76241454  0.11871966     0.06000
H496        H  0.96438719  0.73111832  0.11379943     0.09200
H497        H  0.93213889  0.74377860  0.07574142     0.09200
H498        H  0.06417324  0.91251427  0.09640986     0.09200
H499        H  0.02700996  0.92806801  0.06231672     0.09200
H500        H  0.07001074  0.89615709  0.05181841     0.05900
C501        C  0.04140499  0.78798575  0.31019512    -0.19900
C502        C  0.00356956  0.77545760  0.32533195    -0.06400
C503        C  0.96777785  0.79941936  0.31962468     0.14400
C504        C  0.97100951  0.83612063  0.30016012    -0.19900
C505        C  0.00911706  0.84965300  0.28606666    -0.06400
C506        C  0.04468480  0.82496138  0.29065610     0.14400
C507        C  0.08570303  0.83696002  0.27446410    -0.23300
H508        H  0.08005003  0.78492673  0.97683508     0.15700
H509        H  0.94335244  0.85442682  0.29594305     0.15700
C510        C  0.92579487  0.78714150  0.33380714    -0.23200
H511        H  0.11740588  0.83259342  0.94225983     0.06000
H512        H  0.09697787  0.86650865  0.28568923     0.09200
H513        H  0.08195568  0.84036125  0.24534651     0.09200
H514        H  0.91512770  0.81076399  0.35254765     0.09200
H515        H  0.92613625  0.75695571  0.34769072     0.09200
H516        H  0.90303006  0.78486150  0.31159907     0.05900
C517        C  0.99075222  0.63799948  0.26483739    -0.19900
C518        C  0.03095360  0.62590874  0.25489390    -0.06400
C519        C  0.06568675  0.64580735  0.27126896     0.14400
C520        C  0.05912045  0.67378845  0.29890386    -0.19900
C521        C  0.01899585  0.68255942  0.31062548    -0.06400
C522        C  0.98443847  0.66530328  0.29273195     0.14400
C523        C  0.94073765  0.67384017  0.30432869    -0.23300
H524        H  0.96371574  0.62389902  0.25243192     0.15700
H525        H  0.08555997  0.68713608  0.31282687     0.15700
C526        C  0.10978854  0.63731243  0.26070811    -0.23200
H527        H  0.91723091  0.65693780  0.28817887     0.06000
H528        H  0.93457750  0.70718587  0.30138965     0.09200
H529        H  0.93671893  0.66427720  0.33238388     0.09200
H530        H  0.11322235  0.64231441  0.23178267     0.09200
H531        H  0.11822632  0.60531600  0.26799045     0.09200
H532        H  0.13235311  0.65803537  0.27434125     0.05900
N533        N  0.01345413  0.74645427  0.68627787    -0.03000
C534        C  0.02193305  0.70614175  0.68096900    -0.00400
C535        C  0.01484085  0.68130559  0.37718412    -0.23300
C536        C  0.00516382  0.70900416  0.40313802    -0.23500
C537        C  0.99805228  0.74636720  0.38630103    -0.00500
H538        H  0.02160128  0.64900697  0.38106057     0.13200
H539        H  0.00464593  0.70263301  0.43125714     0.13300
N540        N  0.03047151  0.20185824  0.39783464    -0.03000
C541        C  0.04552239  0.23969560  0.40671747    -0.00400
C542        C  0.06622295  0.25713326  0.37828290    -0.23300
C543        C  0.06523490  0.22861372  0.35165490    -0.23500
C544        C  0.04321608  0.19478633  0.36425225    -0.00500
H545        H  0.08052839  0.28741765  0.37700244     0.13200
H546        H  0.06705536  0.24342493  0.64874873     0.13300
N547        N  0.72361617  0.94569354  0.68638004    -0.03000
C548        C  0.76435911  0.94052019  0.67938714    -0.00400
C549        C  0.78703717  0.93703931  0.37615573    -0.23300
C550        C  0.75753451  0.93337147  0.40233785    -0.23500
C551        C  0.72035744  0.94583257  0.38731778    -0.00500
H552        H  0.81980557  0.93028041  0.37880812     0.13200
H553        H  0.76277762  0.92348317  0.42942921     0.13300
N554        N  0.25983157  0.97652541  0.39035837    -0.03000
C555        C  0.21871104  0.97600881  0.39813481    -0.00400
C556        C  0.19553020  0.98340851  0.36770194    -0.23300
C557        C  0.22335877  0.98940770  0.34054116    -0.23500
C558        C  0.26264598  0.98577149  0.35536981    -0.00500
H559        H  0.16202743  0.98572699  0.36574004     0.13200
H560        H  0.21822658  0.99438683  0.64446057     0.13300
N561        N  0.50479660  0.70564052  0.67133717    -0.03000
C562        C  0.49600761  0.74554259  0.66382297    -0.00400
C563        C  0.48951600  0.76582041  0.36108015    -0.23300
C564        C  0.49794340  0.73882515  0.38849257    -0.23500
C565        C  0.50486928  0.70112061  0.37327720    -0.00500
H566        H  0.48440579  0.79854821  0.36331384     0.13200
H567        H  0.49921498  0.74606268  0.41633999     0.13300
N568        N  0.50236151  0.24662999  0.38440826    -0.03000
C569        C  0.49360000  0.20658357  0.39156345    -0.00400
C570        C  0.48214734  0.18662396  0.36079829    -0.23300
C571        C  0.48369548  0.21562806  0.33386054    -0.23500
C572        C  0.49642520  0.25219219  0.34906809    -0.00500
H573        H  0.47326069  0.15455802  0.35829971     0.13200
H574        H  0.47823829  0.20623408  0.63954453     0.13300
N575        N  0.25750278  0.44567816  0.39253612    -0.03000
C576        C  0.29877768  0.44432850  0.39900189    -0.00400
C577        C  0.31947113  0.43268121  0.36897155    -0.23300
C578        C  0.28946487  0.42655055  0.34311456    -0.23500
C579        C  0.25147840  0.43427856  0.35845956    -0.00500
H580        H  0.35275805  0.43003480  0.36593794     0.13200
H581        H  0.29644718  0.40700738  0.64882549     0.13300
N582        N  0.80169998  0.50850825  0.66592134    -0.03000
C583        C  0.76198800  0.51819093  0.65677169    -0.00400
C584        C  0.73577374  0.47963594  0.36828620    -0.23300
C585        C  0.76308577  0.48829797  0.39567581    -0.23500
C586        C  0.80250908  0.48661915  0.38165229    -0.00500
H587        H  0.70216624  0.47931838  0.36956598     0.13200
H588        H  0.75511395  0.49509059  0.42270081     0.13300
Zn589      Zn  0.56601113  0.42792876  0.53699202     1.49700
Zn590      Zn  0.56218711  0.52485628  0.52864160     1.49400
Zn591      Zn  0.50891761  0.47141251  0.48021088     1.49100
Zn592      Zn  0.48304881  0.47605375  0.56231504     1.49500
O593        O  0.52952136  0.47480186  0.52793810    -1.83700
O594        O  0.62478494  0.44630022  0.54954714    -0.74300
O595        O  0.55611178  0.56042085  0.48501275    -0.74100
O596        O  0.52225091  0.41844495  0.45895721    -0.73600
O597        O  0.62107798  0.51380225  0.54143279    -0.74300
O598        O  0.56246962  0.38582980  0.49788700    -0.73900
O599        O  0.52234554  0.51906571  0.44852446    -0.74500
O600        O  0.42634801  0.47302770  0.53641648    -0.73900
O601        O  0.54228602  0.55958586  0.56688624    -0.74700
O602        O  0.44817271  0.47088115  0.48089425    -0.74000
O603        O  0.48680309  0.52957232  0.59102349    -0.74500
O604        O  0.48666882  0.42579706  0.59561622    -0.74400
O605        O  0.54478152  0.39616071  0.57850315    -0.74200
C606        C  0.64122933  0.48217395  0.55114753     0.77600
C607        C  0.53817511  0.55400715  0.45542140     0.78100
C608        C  0.54117589  0.38634951  0.46931052     0.77000
C609        C  0.41913594  0.47123333  0.50320720     0.77400
C610        C  0.51327735  0.55919404  0.58928079     0.78500
C611        C  0.51318131  0.39691319  0.59841872     0.77600
Zn612      Zn  0.48863228  0.93530538  0.50409261     1.49700
Zn613      Zn  0.54409578  0.01375525  0.53216802     1.49400
Zn614      Zn  0.44725608  0.01935009  0.53551062     1.49100
Zn615      Zn  0.49392069  0.95916049  0.58629922     1.49500
O616        O  0.49338675  0.98122316  0.53881456    -1.83700
O617        O  0.54000742  0.93586171  0.47175233    -0.74300
O618        O  0.53259716  0.07125575  0.51401327    -0.74100
O619        O  0.40899148  0.99855772  0.49905205    -0.73600
O620        O  0.57570653  0.98904721  0.49326527    -0.74300
O621        O  0.43518011  0.94293549  0.47417448    -0.73900
O622        O  0.46412431  0.07524886  0.51577629    -0.74500
O623        O  0.44740232  0.97942091  0.61572386    -0.73900
O624        O  0.58374462  0.01103899  0.57422815    -0.74700
O625        O  0.41255513  0.02120855  0.57989944    -0.74000
O626        O  0.54913628  0.96760423  0.60926311    -0.74500
O627        O  0.48627947  0.89858863  0.58570137    -0.74400
O628        O  0.48566174  0.87867745  0.52965362    -0.74200
C629        C  0.57197861  0.95964745  0.47156061     0.77600
C630        C  0.49923364  0.09040617  0.50673412     0.78100
C631        C  0.40708968  0.97033868  0.47624193     0.77000
C632        C  0.41591906  0.00158707  0.60916134     0.77400
C633        C  0.58191597  0.98789119  0.60160005     0.78500
C634        C  0.48438134  0.87045868  0.56273851     0.77600
Zn635      Zn  0.95752395  0.92567217  0.54061669     1.49700
Zn636      Zn  0.04199496  0.97500271  0.57008176     1.49400
Zn637      Zn  0.00894899  0.97787854  0.48832990     1.49100
Zn638      Zn  0.95669510  0.02185530  0.54740302     1.49500
O639        O  0.99212544  0.97511147  0.53741780    -1.83700
O640        O  0.98266611  0.89108777  0.57748102    -0.74300
O641        O  0.09659888  0.97439054  0.54061511    -0.74100
O642        O  0.98976626  0.93059040  0.45790234    -0.73600
O643        O  0.03956024  0.92106452  0.60007475    -0.74300
O644        O  0.95842663  0.89000258  0.49677865    -0.73900
O645        O  0.07002189  0.97409556  0.48605890    -0.74500
O646        O  0.95583320  0.06275152  0.50683633    -0.73900
O647        O  0.04194686  0.02740227  0.60256632    -0.74700
O648        O  0.99671465  0.03290161  0.46762316    -0.74000
O649        O  0.98222039  0.05551369  0.58596752    -0.74500
O650        O  0.89986457  0.00414707  0.56520771    -0.74400
O651        O  0.89953377  0.93640379  0.55884163    -0.74200
C652        C  0.01334093  0.89108844  0.59885025     0.77600
C653        C  0.10101842  0.97320000  0.50703631     0.78100
C654        C  0.97356726  0.89596358  0.46610695     0.77000
C655        C  0.97682420  0.06376863  0.47848223     0.77400
C656        C  0.01517434  0.05622949  0.60486497     0.78500
C657        C  0.88224173  0.96906243  0.56940450     0.77600
Zn658      Zn  0.07902995  0.50869815  0.54621031     1.49700
Zn659      Zn  0.03181636  0.45477881  0.48864200     1.49400
Zn660      Zn  0.02267477  0.42569675  0.56881250     1.49100
Zn661      Zn  0.98481253  0.51355330  0.53830961     1.49500
O662        O  0.02975469  0.47478720  0.53630200    -1.83700
O663        O  0.12078866  0.50732373  0.50634135    -0.74300
O664        O  0.02729546  0.39366424  0.48637402    -0.74100
O665        O  0.07153250  0.42631092  0.60475967    -0.73600
O666        O  0.08713224  0.46643900  0.46849149    -0.74300
O667        O  0.10776980  0.48082986  0.58548190    -0.73900
O668        O  0.02492301  0.37021344  0.54162266    -0.74500
O669        O  0.94486281  0.48815798  0.56965708    -0.73900
O670        O  0.98471923  0.47477396  0.45887336    -0.74700
O671        O  0.96500354  0.42848694  0.59297157    -0.74000
O672        O  0.95152148  0.51825799  0.49299302    -0.74500
O673        O  0.99906332  0.56819435  0.56104001    -0.74400
O674        O  0.06739419  0.56630306  0.56564848    -0.74200
C675        C  0.11968807  0.48583740  0.47834667     0.77600
C676        C  0.02601596  0.36391680  0.50834115     0.78100
C677        C  0.10312448  0.45059095  0.60661784     0.77000
C678        C  0.93773221  0.45650070  0.58853775     0.77400
C679        C  0.95382230  0.49761748  0.46468471     0.78500
C680        C  0.03321302  0.58435971  0.57161313     0.77600
C681        C  0.86814207  0.45790102  0.40376136    -0.19900
C682        C  0.84172003  0.49167024  0.40190460    -0.06400
C683        C  0.85339952  0.52867302  0.41883721     0.14400
C684        C  0.89109139  0.53046200  0.43792828    -0.19900
C685        C  0.91766512  0.49646215  0.44000647    -0.06400
C686        C  0.90580510  0.45957168  0.42251998     0.14400
C687        C  0.93103645  0.42076242  0.42507409    -0.23300
H688        H  0.85865495  0.42953443  0.39102698     0.15700
H689        H  0.89959521  0.55856739  0.45154412     0.15700
C690        C  0.82741396  0.56693815  0.41691947    -0.23200
H691        H  0.91546030  0.39446754  0.41161502     0.06000
H692        H  0.93540802  0.41198599  0.45327412     0.09200
H693        H  0.96166851  0.42565070  0.41236258     0.09200
H694        H  0.86882549  0.56043424  0.65155834     0.09200
H695        H  0.91703691  0.53247028  0.65256063     0.09200
H696        H  0.91509459  0.58477986  0.66791780     0.05900
C697        C  0.89172402  0.44218063  0.64037675    -0.19900
C698        C  0.89628401  0.45496158  0.60504892    -0.06400
C699        C  0.86324567  0.47632880  0.58821349     0.14400
C700        C  0.83252962  0.49340654  0.60881698    -0.19900
C701        C  0.83005629  0.48476939  0.64509335    -0.06400
C702        C  0.85748940  0.45530597  0.66014859     0.14400
C703        C  0.82896797  0.39509350  0.32131127    -0.23300
H704        H  0.91571199  0.42391098  0.65307455     0.15700
H705        H  0.81163505  0.51511302  0.59643194     0.15700
C706        C  0.86061091  0.48357231  0.54870069    -0.23200
H707        H  0.81593155  0.38053785  0.29713001     0.06000
H708        H  0.80381904  0.39893077  0.34061426     0.09200
H709        H  0.85213275  0.37415148  0.33369164     0.09200
H710        H  0.88397875  0.46575899  0.53409742     0.09200
H711        H  0.86478511  0.51686952  0.54257654     0.09200
H712        H  0.82954400  0.47341802  0.53879692     0.05900
C713        C  0.72943435  0.53532281  0.59950536    -0.19900
C714        C  0.73925445  0.50492345  0.62465487    -0.06400
C715        C  0.72451504  0.46431078  0.61983919     0.14400
C716        C  0.69616372  0.45636418  0.59219102    -0.19900
C717        C  0.68190403  0.48816452  0.56963855    -0.06400
C718        C  0.70169744  0.52740991  0.57157478     0.14400
C719        C  0.69334115  0.56168301  0.54522701    -0.23300
H720        H  0.74245062  0.56603938  0.60261103     0.15700
H721        H  0.68246986  0.42580304  0.59038597     0.15700
C722        C  0.71370670  0.39472600  0.31952480    -0.23200
H723        H  0.71626512  0.58731230  0.54808466     0.06000
H724        H  0.66217680  0.57495461  0.54934084     0.09200
H725        H  0.69582128  0.54991689  0.51788587     0.09200
H726        H  0.68106068  0.39002907  0.32812055     0.09200
H727        H  0.73326925  0.39749682  0.34364032     0.09200
H728        H  0.72369929  0.36708365  0.30501577     0.05900
C729        C  0.15584445  0.40498617  0.63436372    -0.19900
C730        C  0.13715771  0.44376313  0.63245299    -0.06400
C731        C  0.15299652  0.47890837  0.31942042     0.14400
C732        C  0.18931050  0.47329068  0.33955607    -0.19900
C733        C  0.21117838  0.43626555  0.33891703    -0.06400
C734        C  0.19423428  0.39946838  0.65198488     0.14400
C735        C  0.21427789  0.35778610  0.65125976    -0.23300
H736        H  0.14168101  0.37955605  0.62014946     0.15700
H737        H  0.20183745  0.49887737  0.35447435     0.15700
C738        C  0.13090116  0.51954698  0.32130299    -0.23200
H739        H  0.19381703  0.33459578  0.63821756     0.06000
H740        H  0.22111304  0.34654993  0.67844057     0.09200
H741        H  0.24357453  0.35960971  0.63613775     0.09200
H742        H  0.09792286  0.51420544  0.32865127     0.09200
H743        H  0.13227782  0.53595616  0.29547938     0.09200
H744        H  0.14531387  0.54007448  0.34140798     0.05900
C745        C  0.16732022  0.43632464  0.45323129    -0.19900
C746        C  0.15795215  0.47783280  0.45880972    -0.06400
C747        C  0.18425151  0.50898888  0.44512222     0.14400
C748        C  0.21830380  0.49769048  0.42449712    -0.19900
C749        C  0.22597198  0.45615913  0.41730304    -0.06400
C750        C  0.20111298  0.42517142  0.43275582     0.14400
C751        C  0.21015343  0.38037873  0.42738474    -0.23300
H752        H  0.14763044  0.41241225  0.46463395     0.15700
H753        H  0.23777767  0.52125388  0.41254222     0.15700
C754        C  0.17532107  0.55376618  0.45074537    -0.23200
H755        H  0.18838151  0.36005619  0.44232155     0.06000
H756        H  0.20688425  0.37294948  0.39903131     0.09200
H757        H  0.24228590  0.37356729  0.43649808     0.09200
H758        H  0.17657134  0.56062916  0.47942326     0.09200
H759        H  0.14393257  0.56111198  0.44006044     0.09200
H760        H  0.19837143  0.57403186  0.43721162     0.05900
C761        C  0.32811449  0.42375734  0.45718040    -0.19900
C762        C  0.31959733  0.45529407  0.43260102    -0.06400
C763        C  0.33679927  0.49496844  0.43782991     0.14400
C764        C  0.36472751  0.50125158  0.46599077    -0.19900
C765        C  0.37687664  0.46860441  0.48823521    -0.06400
C766        C  0.35696392  0.42989138  0.48487297     0.14400
C767        C  0.36893568  0.39420586  0.50850665    -0.23300
H768        H  0.31486443  0.39336614  0.45297419     0.15700
H769        H  0.38062181  0.53077078  0.46817472     0.15700
C770        C  0.32889989  0.53052282  0.41277726    -0.23200
H771        H  0.35054032  0.36602513  0.50223113     0.06000
H772        H  0.36329129  0.40213947  0.53651616     0.09200
H773        H  0.40237158  0.38713051  0.50523028     0.09200
H774        H  0.31481664  0.55617207  0.42746113     0.09200
H775        H  0.30767634  0.52240904  0.39058831     0.09200
H776        H  0.35879652  0.54137317  0.40133221     0.05900
C777        C  0.53428775  0.17158029  0.43875427    -0.19900
C778        C  0.49578176  0.18597206  0.42672035    -0.06400
C779        C  0.45951125  0.17449404  0.44512615     0.14400
C780        C  0.46222798  0.14625887  0.47351412    -0.19900
C781        C  0.50039611  0.12837703  0.48369739    -0.06400
C782        C  0.53731039  0.14306645  0.46694706     0.14400
C783        C  0.58002854  0.12774680  0.47690804    -0.23300
H784        H  0.56197723  0.18046695  0.42432679     0.15700
H785        H  0.43380055  0.13626432  0.48630010     0.15700
C786        C  0.41772080  0.19103540  0.43403637    -0.23200
H787        H  0.60489368  0.14471122  0.46245269     0.06000
H788        H  0.58287709  0.09477163  0.47010634     0.09200
H789        H  0.58582945  0.13219098  0.50561879     0.09200
H790        H  0.41029576  0.18197217  0.40645207     0.09200
H791        H  0.41828138  0.22511596  0.43571250     0.09200
H792        H  0.39245208  0.17910838  0.45127722     0.05900
C793        C  0.46467768  0.30904143  0.31354265    -0.19900
C794        C  0.50038906  0.29196986  0.32937605    -0.06400
C795        C  0.53936207  0.30111508  0.65194784     0.14400
C796        C  0.54268102  0.33801090  0.63251828    -0.19900
C797        C  0.50753727  0.36190228  0.62396274    -0.06400
C798        C  0.46811473  0.34867198  0.63662416     0.14400
C799        C  0.42892495  0.37227686  0.62880955    -0.23300
H800        H  0.43495809  0.29356457  0.31715699     0.15700
H801        H  0.57302456  0.34760894  0.62307901     0.15700
C802        C  0.57755411  0.27553616  0.65839325    -0.23200
H803        H  0.40050602  0.34081577  0.28078603     0.06000
H804        H  0.42372022  0.37470420  0.59978358     0.09200
H805        H  0.42120758  0.39217969  0.28381693     0.09200
H806        H  0.57299883  0.24466803  0.64657461     0.09200
H807        H  0.58048171  0.29165036  0.36584423     0.09200
H808        H  0.60567507  0.28994149  0.64648587     0.05900
C809        C  0.54862182  0.28000800  0.42779526    -0.19900
C810        C  0.51032188  0.27848510  0.40962698    -0.06400
C811        C  0.48161148  0.31031972  0.41389188     0.14400
C812        C  0.49349218  0.34493756  0.43295987    -0.19900
C813        C  0.53287596  0.34820887  0.44932821    -0.06400
C814        C  0.56035773  0.31459426  0.44779811     0.14400
C815        C  0.60232402  0.31546743  0.46585725    -0.23300
H816        H  0.57021490  0.25502611  0.42472222     0.15700
H817        H  0.47106436  0.36937520  0.43560652     0.15700
C818        C  0.43783874  0.30837800  0.39932024    -0.23200
H819        H  0.62036282  0.28737313  0.46025208     0.06000
H820        H  0.59848791  0.31702151  0.49493727     0.09200
H821        H  0.62057493  0.34257711  0.45642606     0.09200
H822        H  0.41551493  0.31138881  0.42131692     0.09200
H823        H  0.43057283  0.27896354  0.38595171     0.09200
H824        H  0.43290143  0.33417350  0.38027859     0.05900
C825        C  0.45124433  0.78348058  0.62159976    -0.19900
C826        C  0.48976081  0.76498770  0.62849366    -0.06400
C827        C  0.52394002  0.77530098  0.60675503     0.14400
C828        C  0.51967050  0.80651916  0.58083972    -0.19900
C829        C  0.48219932  0.82779435  0.57653092    -0.06400
C830        C  0.44697203  0.81440077  0.59561324     0.14400
C831        C  0.40534507  0.83432797  0.58977477    -0.23300
H832        H  0.42514705  0.77594454  0.63849328     0.15700
H833        H  0.54680581  0.81720743  0.56648498     0.15700
C834        C  0.56589561  0.75626504  0.61298099    -0.23200
H835        H  0.38115097  0.82067797  0.60723275     0.06000
H836        H  0.39521484  0.83003643  0.56188851     0.09200
H837        H  0.40749697  0.86771122  0.59512480     0.09200
H838        H  0.56375578  0.72271437  0.60831202     0.09200
H839        H  0.57666955  0.76181409  0.64053364     0.09200
H840        H  0.58964896  0.76930379  0.59477894     0.05900
C841        C  0.48934654  0.62863482  0.38918601    -0.19900
C842        C  0.51552260  0.66299451  0.39300917    -0.06400
C843        C  0.55163086  0.66002647  0.41442621     0.14400
C844        C  0.55953999  0.62315849  0.43288775    -0.19900
C845        C  0.53247474  0.58899240  0.43022795    -0.06400
C846        C  0.49727975  0.59159033  0.40721422     0.14400
C847        C  0.46666531  0.55646699  0.40234637    -0.23300
H848        H  0.46187393  0.63113671  0.37250301     0.15700
H849        H  0.58662865  0.62132500  0.45012869     0.15700
C850        C  0.58225867  0.69531208  0.41743034    -0.23200
H851        H  0.44100217  0.56466737  0.38374541     0.06000
H852        H  0.45236219  0.54796997  0.42804921     0.09200
H853        H  0.48268099  0.52954886  0.39118265     0.09200
H854        H  0.56750287  0.72191036  0.43017126     0.09200
H855        H  0.59317851  0.70457927  0.39070679     0.09200
H856        H  0.60989989  0.68680696  0.43368856     0.05900
C857        C  0.54440800  0.65050783  0.64530104    -0.19900
C858        C  0.50661918  0.67119058  0.64783177    -0.06400
C859        C  0.47005546  0.65287385  0.63375113     0.14400
C860        C  0.47255099  0.61518317  0.61601864    -0.19900
C861        C  0.51071015  0.59522958  0.61255844    -0.06400
C862        C  0.54697781  0.61267779  0.62820150     0.14400
C863        C  0.58815590  0.59076792  0.62844015    -0.23300
H864        H  0.57182701  0.66372454  0.65788572     0.15700
H865        H  0.44479656  0.60166522  0.60422490     0.15700
C866        C  0.42819778  0.66793982  0.29979516    -0.23200
H867        H  0.61192910  0.60720672  0.64467545     0.06000
H868        H  0.60053766  0.58876902  0.60127490     0.09200
H869        H  0.58417034  0.55933608  0.63984601     0.09200
H870        H  0.42688768  0.69821804  0.28626637     0.09200
H871        H  0.41985336  0.67134576  0.32800945     0.09200
H872        H  0.40452026  0.64759192  0.28712931     0.05900
C873        C  0.18035073  0.93601506  0.44380840    -0.19900
C874        C  0.19969929  0.97318656  0.43378063    -0.06400
C875        C  0.19203526  0.00892232  0.45360831     0.14400
C876        C  0.16342087  0.00708290  0.48162296    -0.19900
C877        C  0.14215346  0.97036584  0.49010540    -0.06400
C878        C  0.15238622  0.93403285  0.47210948     0.14400
C879        C  0.13194309  0.89346371  0.48162088    -0.23300
H880        H  0.18482968  0.90894956  0.42788196     0.15700
H881        H  0.15475776  0.03518094  0.49471002     0.15700
C882        C  0.21136745  0.04970925  0.44334874    -0.23200
H883        H  0.14320334  0.86809284  0.46491072     0.06000
H884        H  0.09773371  0.89529346  0.47815679     0.09200
H885        H  0.13912670  0.88564164  0.50967264     0.09200
H886        H  0.20212149  0.05814098  0.41585096     0.09200
H887        H  0.24572132  0.04763859  0.44513907     0.09200
H888        H  0.20141738  0.07473638  0.46102429     0.05900
C889        C  0.35039935  0.02897994  0.29770187    -0.19900
C890        C  0.38052113  0.00118752  0.63428676    -0.06400
C891        C  0.37234369  0.96695609  0.65707106     0.14400
C892        C  0.33380862  0.96368106  0.67379420    -0.19900
C893        C  0.30241410  0.99097185  0.33586616    -0.06400
C894        C  0.31305333  0.02727100  0.31676846     0.14400
C895        C  0.28656084  0.06523624  0.31657727    -0.23300
H896        H  0.35775810  0.05654063  0.28247774     0.15700
H897        H  0.32665526  0.93633210  0.68925004     0.15700
C898        C  0.40298412  0.93273204  0.66337392    -0.23200
H899        H  0.27527386  0.07174682  0.28924757     0.06000
H900        H  0.30552453  0.09187741  0.32581932     0.09200
H901        H  0.25940154  0.06257710  0.33421664     0.09200
H902        H  0.43211139  0.94538938  0.67520502     0.09200
H903        H  0.40977022  0.91729887  0.63818176     0.09200
H904        H  0.39085978  0.90882737  0.68194153     0.05900
C905        C  0.34682235  0.93518754  0.44719740    -0.19900
C906        C  0.37090453  0.97098395  0.45194784    -0.06400
C907        C  0.35771271  0.00849669  0.43621040     0.14400
C908        C  0.31976652  0.00963339  0.41789716    -0.19900
C909        C  0.29486066  0.97437103  0.41422136    -0.06400
C910        C  0.30895702  0.93643005  0.42822353     0.14400
C911        C  0.28474700  0.89720507  0.42241873    -0.23300
H912        H  0.35714172  0.90648001  0.45905536     0.15700
H913        H  0.30970219  0.03804944  0.40535499     0.15700
C914        C  0.38422063  0.04717415  0.43731696    -0.23200
H915        H  0.30182482  0.86998400  0.43271002     0.06000
H916        H  0.27865537  0.89270860  0.39377008     0.09200
H917        H  0.25496157  0.89850914  0.43658132     0.09200
H918        H  0.41572186  0.04070240  0.42715091     0.09200
H919        H  0.38676235  0.05889346  0.46468040     0.09200
H920        H  0.37075189  0.07221249  0.42070063     0.05900
C921        C  0.78695105  0.92625430  0.61791470    -0.19900
C922        C  0.78607440  0.95319650  0.64658673    -0.06400
C923        C  0.81153668  0.98880315  0.64611097     0.14400
C924        C  0.83965279  0.99503324  0.61840444    -0.19900
C925        C  0.84398670  0.96593660  0.59143578    -0.06400
C926        C  0.81564721  0.93208558  0.59027551     0.14400
C927        C  0.81552881  0.90183628  0.56036366    -0.23300
H928        H  0.77723262  0.89983999  0.29248031     0.15700
H929        H  0.86063637  0.02134320  0.61946832     0.15700
C930        C  0.81042612  0.01942817  0.67574198    -0.23200
H931        H  0.78902132  0.87971660  0.56229719     0.06000
H932        H  0.84446493  0.88361112  0.56087434     0.09200
H933        H  0.81261682  0.91858831  0.53470543     0.09200
H934        H  0.81970913  0.00446516  0.70109939     0.09200
H935        H  0.77853748  0.03166222  0.67815862     0.09200
H936        H  0.83196564  0.04584558  0.67102767     0.05900
C937        C  0.65856520  0.91370266  0.41641239    -0.19900
C938        C  0.68076194  0.94952461  0.40672146    -0.06400
C939        C  0.66560597  0.98823824  0.41670353     0.14400
C940        C  0.62860331  0.99017092  0.43573512    -0.19900
C941        C  0.60654693  0.95446284  0.44617177    -0.06400
C942        C  0.62142487  0.91564161  0.43577876     0.14400
C943        C  0.59948794  0.87620576  0.44620643    -0.23300
H944        H  0.67077380  0.88399828  0.40940602     0.15700
H945        H  0.61767628  0.02011829  0.44364992     0.15700
C946        C  0.68869193  0.02810202  0.40959172    -0.23200
H947        H  0.61609862  0.84875891  0.43665019     0.06000
H948        H  0.56767604  0.87556526  0.43450732     0.09200
H949        H  0.59759852  0.87380507  0.47546355     0.09200
H950        H  0.71865934  0.02383697  0.39601826     0.09200
H951        H  0.69566204  0.04356216  0.43505105     0.09200
H952        H  0.66897199  0.04868794  0.39302666     0.05900
C953        C  0.68403787  0.99809788  0.65329171    -0.19900
C954        C  0.69096453  0.95661281  0.66196958    -0.06400
C955        C  0.66316838  0.92613292  0.64963578     0.14400
C956        C  0.62779139  0.93786106  0.63050863    -0.19900
C957        C  0.61977058  0.97939760  0.62273190    -0.06400
C958        C  0.64849774  0.00998037  0.63380819     0.14400
C959        C  0.64088130  0.05493119  0.62659775    -0.23300
H960        H  0.70577846  0.02124017  0.66272245     0.15700
H961        H  0.60641026  0.91424654  0.62110311     0.15700
C962        C  0.67127812  0.88109274  0.65615235    -0.23200
H963        H  0.66553757  0.07466394  0.63864122     0.06000
H964        H  0.61057481  0.06376729  0.63790224     0.09200
H965        H  0.64052097  0.06108915  0.59767669     0.09200
H966        H  0.67172310  0.87406379  0.68482627     0.09200
H967        H  0.70173310  0.87288045  0.64485941     0.09200
H968        H  0.64696437  0.86126279  0.64373383     0.05900
C969        C  0.00293423  0.13027577  0.61688345    -0.19900
C970        C  0.02165563  0.09322554  0.62804838    -0.06400
C971        C  0.04361013  0.09300338  0.66080291     0.14400
C972        C  0.04648373  0.12955063  0.68088863    -0.19900
C973        C  0.03541119  0.15681098  0.34306534    -0.06400
C974        C  0.01684963  0.15928669  0.30903217     0.14400
C975        C  0.99791154  0.19814020  0.29402864    -0.23300
H976        H  0.00042365  0.12711310  0.26189015     0.15700
H977        H  0.06396728  0.12950251  0.70555094     0.15700
C978        C  0.06335565  0.05438599  0.67508466    -0.23200
H979        H  0.01542947  0.20835366  0.27028616     0.06000
H980        H  0.99732917  0.22373459  0.31305276     0.09200
H981        H  0.96509536  0.19183478  0.28614356     0.09200
H982        H  0.08807671  0.04428634  0.65698028     0.09200
H983        H  0.03941120  0.02967693  0.67775463     0.09200
H984        H  0.07784632  0.05928639  0.70153341     0.05900
C985        C  0.03432280  0.15962987  0.45116876    -0.19900
C986        C  0.01166381  0.17209958  0.42124219    -0.06400
C987        C  0.97367397  0.15187113  0.41270155     0.14400
C988        C  0.96127158  0.11711431  0.43255032    -0.19900
C989        C  0.98545336  0.10344280  0.46123741    -0.06400
C990        C  0.02168431  0.12555409  0.47132332     0.14400
C991        C  0.04807096  0.11210863  0.50256419    -0.23300
H992        H  0.06331540  0.17526919  0.45753489     0.15700
H993        H  0.93329831  0.10020995  0.42516950     0.15700
C994        C  0.94582714  0.16627604  0.38293799    -0.23200
H995        H  0.07524686  0.13298466  0.50672448     0.06000
H996        H  0.05998402  0.08063675  0.49825945     0.09200
H997        H  0.02916549  0.11211209  0.52696608     0.09200
H998        H  0.95742946  0.19505860  0.37026977     0.09200
H999        H  0.91440293  0.17253671  0.39335678     0.09200
H1000       H  0.94317491  0.14199248  0.36258925     0.05900
C1001       C  0.99961682  0.27273065  0.45101664    -0.19900
C1002       C  0.03978915  0.26147151  0.44089130    -0.07200
C1003       C  0.07437056  0.27712290  0.46023566     0.14400
C1004       C  0.06830240  0.30715015  0.48615065    -0.19900
C1005       C  0.02855414  0.32197922  0.49335469    -0.06400
C1006       C  0.99366301  0.30291436  0.47702310     0.14400
C1007       C  0.95028732  0.31569705  0.48609581    -0.23300
H1008       H  0.97300839  0.26021613  0.43675506     0.15700
H1009       H  0.09509071  0.32161552  0.49872819     0.15700
C1010       C  0.11796553  0.26310093  0.45298802    -0.23200
H1011       H  0.92642475  0.29810830  0.47088670     0.06000
H1012       H  0.94619673  0.34883994  0.48014473     0.09200
H1013       H  0.94492889  0.31012398  0.51472032     0.09200
H1014       H  0.12744921  0.27221879  0.42590744     0.09200
H1015       H  0.11956179  0.22913002  0.45592011     0.09200
H1016       H  0.14089071  0.27690271  0.47171000     0.05900
C1017       C  0.94986791  0.82604060  0.44695238    -0.19900
C1018       C  0.97575140  0.86062614  0.44109305    -0.06400
C1019       C  0.00695252  0.85806046  0.41481488     0.14400
C1020       C  0.01336337  0.82048542  0.39778029    -0.19900
C1021       C  0.98859728  0.78560514  0.40471918    -0.06400
C1022       C  0.95550877  0.78888001  0.42890559     0.14400
C1023       C  0.92553855  0.75366012  0.43554097    -0.23300
H1024       H  0.92549183  0.82775343  0.46644087     0.15700
H1025       H  0.03884069  0.81808965  0.37946796     0.15700
C1026       C  0.03475346  0.89403169  0.40493059    -0.23200
H1027       H  0.89987823  0.76272760  0.45316188     0.06000
H1028       H  0.94169533  0.72758124  0.44857246     0.09200
H1029       H  0.91142422  0.74337856  0.41018929     0.09200
H1030       H  0.05340917  0.90404120  0.42815879     0.09200
H1031       H  0.01557865  0.91989944  0.39480104     0.09200
H1032       H  0.05690745  0.88612658  0.38377929     0.05900
C1033       C  0.05012807  0.79357904  0.64596650    -0.19900
C1034       C  0.01250989  0.77943070  0.66061199    -0.06400
C1035       C  0.97622291  0.80282810  0.65557125     0.14400
C1036       C  0.97851817  0.84008080  0.63693991    -0.19900
C1037       C  0.01606379  0.85480835  0.62267679    -0.06400
C1038       C  0.05239857  0.83118409  0.62706519     0.14400
C1039       C  0.09310016  0.84506058  0.61137900    -0.23300
H1040       H  0.06878317  0.76955293  0.31503889     0.15700
H1041       H  0.95032311  0.85771277  0.63313387     0.15700
C1042       C  0.93458428  0.78945590  0.66975595    -0.23200
H1043       H  0.10981932  0.81341496  0.27980067     0.06000
H1044       H  0.10291374  0.87490092  0.62298788     0.09200
H1045       H  0.08960241  0.84874124  0.58226614     0.09200
H1046       H  0.92350409  0.81252713  0.68882275     0.09200
H1047       H  0.93566650  0.75911420  0.68329477     0.09200
H1048       H  0.91175194  0.78708474  0.64760556     0.05900
C1049       C  0.99257539  0.63608938  0.60506694    -0.19900
C1050       C  0.03184488  0.62261563  0.59390033    -0.06400
C1051       C  0.06778559  0.64313931  0.60775653     0.14400
C1052       C  0.06336577  0.67362848  0.63379252    -0.19900
C1053       C  0.02424073  0.68445010  0.64653602    -0.06400
C1054       C  0.98842213  0.66608841  0.63130324     0.14400
C1055       C  0.94562193  0.67667126  0.64388321    -0.23300
H1056       H  0.96462807  0.62144478  0.59473166     0.15700
H1057       H  0.09083066  0.68736561  0.64589016     0.15700
C1058       C  0.11109502  0.63258158  0.59642656    -0.23200
H1059       H  0.92098136  0.65849319  0.63014196     0.06000
H1060       H  0.93980573  0.70965953  0.63835057     0.09200
H1061       H  0.94303917  0.67036062  0.67270252     0.09200
H1062       H  0.11358351  0.63580458  0.56726324     0.09200
H1063       H  0.11859100  0.60074105  0.60483449     0.09200
H1064       H  0.13489615  0.65322266  0.60857596     0.05900
N1065       N  0.01819805  0.75266123  0.01360621    -0.03000
C1066       C  0.02883620  0.71351776  0.00604042    -0.00400
C1067       C  0.02306525  0.68541753  0.71310488    -0.23300
C1068       C  0.01506041  0.71385324  0.73889392    -0.23500
C1069       C  0.00869740  0.75109944  0.72170890    -0.00500
H1070       H  0.02835920  0.65288160  0.71727840     0.13200
H1071       H  0.01438855  0.70785915  0.76706695     0.13300
N1072       N  0.02460238  0.21266871  0.72339990    -0.03000
C1073       C  0.03874138  0.25122524  0.73120046    -0.00400
C1074       C  0.05702348  0.26878459  0.70161980    -0.23300
C1075       C  0.05513030  0.23983890  0.67527131    -0.23500
C1076       C  0.03529525  0.20545884  0.68929578    -0.00500
H1077       H  0.07019723  0.29949788  0.69939655     0.13200
H1078       H  0.07360406  0.23888690  0.99111066     0.13300
N1079       N  0.72674268  0.96273744  0.01799799    -0.03000
C1080       C  0.76790011  0.96287912  0.01101547    -0.00400
C1081       C  0.78468526  0.92542014  0.70920039    -0.23300
C1082       C  0.75527653  0.92135504  0.73537627    -0.23500
C1083       C  0.71814064  0.93427464  0.72060316    -0.00500
H1084       H  0.81758583  0.91930595  0.71191974     0.13200
H1085       H  0.76070787  0.91161773  0.76248217     0.13300
N1086       N  0.25960455  0.97924515  0.72336832    -0.03000
C1087       C  0.21833171  0.97633293  0.72977500    -0.00400
C1088       C  0.19612391  0.98145207  0.69849007    -0.23300
C1089       C  0.22485689  0.98849000  0.67216749    -0.23500
C1090       C  0.26355878  0.98773973  0.68841732    -0.00500
H1091       H  0.16262514  0.98186056  0.69541672     0.13200
H1092       H  0.21615091  0.97909261  0.98169822     0.13300
N1093       N  0.51030911  0.70362224  0.00405471    -0.03000
C1094       C  0.50105399  0.74338083  0.99636993    -0.00400
C1095       C  0.49762300  0.76832315  0.69451452    -0.23300
C1096       C  0.50828724  0.74170056  0.72165302    -0.23500
C1097       C  0.51310900  0.70357469  0.70656133    -0.00500
H1098       H  0.49246771  0.80104065  0.69676503     0.13200
H1099       H  0.51171844  0.74935921  0.74930035     0.13300
N1100       N  0.49939015  0.24284072  0.71847554    -0.03000
C1101       C  0.49084822  0.20271468  0.72552965    -0.00400
C1102       C  0.48154473  0.18246301  0.69435209    -0.23300
C1103       C  0.48391092  0.21140403  0.66740876    -0.23500
C1104       C  0.49479446  0.24816910  0.68310228    -0.00500
H1105       H  0.47369523  0.15018029  0.69155143     0.13200
H1106       H  0.48765455  0.20874018  0.96827639     0.13300
N1107       N  0.25960776  0.44511900  0.72206275    -0.03000
C1108       C  0.30041825  0.44117705  0.72965121    -0.00400
C1109       C  0.32068388  0.42453258  0.70120360    -0.23300
C1110       C  0.29085926  0.41789730  0.67524249    -0.23500
C1111       C  0.25343107  0.43051364  0.68896575    -0.00500
H1112       H  0.35369706  0.41901998  0.69914983     0.13200
H1113       H  0.29829670  0.47382111  0.96900456     0.13300
N1114       N  0.80153947  0.48557963  0.00742087    -0.03000
C1115       C  0.76003269  0.48364106  0.00123426    -0.00400
C1116       C  0.74598224  0.54639271  0.67981858    -0.23300
C1117       C  0.77685780  0.55481919  0.70401987    -0.23500
C1118       C  0.81096814  0.53196847  0.69462573    -0.00500
H1119       H  0.71537434  0.55990086  0.67870147     0.13200
H1120       H  0.77480988  0.57559356  0.72608715     0.13300
Zn1121     Zn  0.56697819  0.42676039  0.86541400     1.49700
Zn1122     Zn  0.56985274  0.52341642  0.85966980     1.49400
Zn1123     Zn  0.51300338  0.47245690  0.80912362     1.49100
Zn1124     Zn  0.48613783  0.47774322  0.89067097     1.49500
O1125       O  0.53344835  0.47527570  0.85700298    -1.83700
O1126       O  0.62507831  0.44143741  0.88051935    -0.74300
O1127       O  0.56623178  0.55946904  0.81560911    -0.74100
O1128       O  0.52276209  0.41798483  0.78763286    -0.73600
O1129       O  0.62816766  0.50956343  0.87698185    -0.74300
O1130       O  0.56332747  0.38520421  0.82622998    -0.73900
O1131       O  0.52998375  0.52008283  0.77883069    -0.74500
O1132       O  0.42971893  0.47553178  0.86428246    -0.73900
O1133       O  0.54854399  0.55896063  0.89700418    -0.74700
O1134       O  0.45211905  0.47537028  0.80892740    -0.74000
O1135       O  0.49072397  0.53121676  0.91906295    -0.74500
O1136       O  0.48787974  0.42814829  0.92470501    -0.74400
O1137       O  0.54398929  0.39592422  0.90627460    -0.74200
C1138       C  0.64420336  0.47532476  0.88617495     0.77600
C1139       C  0.54730160  0.55428023  0.78615916     0.78100
C1140       C  0.54147112  0.38572144  0.79800279     0.77000
C1141       C  0.42278028  0.47526688  0.83099022     0.77400
C1142       C  0.51843820  0.55975115  0.91833054     0.78500
C1143       C  0.51329626  0.39829614  0.92695943     0.77600
Zn1144     Zn  0.48649322  0.93206707  0.83652398     1.49700
Zn1145     Zn  0.54247161  0.01014935  0.86325351     1.49400
Zn1146     Zn  0.44667558  0.01552827  0.87100049     1.49100
Zn1147     Zn  0.49552440  0.95395274  0.91885779     1.49500
O1148       O  0.49267665  0.97715672  0.87179397    -1.83700
O1149       O  0.53776211  0.93156248  0.80434027    -0.74300
O1150       O  0.52957654  0.06657712  0.84381813    -0.74100
O1151       O  0.40824389  0.99693559  0.83399082    -0.73600
O1152       O  0.57467555  0.98417545  0.82549039    -0.74300
O1153       O  0.43302876  0.94182970  0.80726569    -0.73900
O1154       O  0.46233606  0.07294283  0.85351198    -0.74500
O1155       O  0.44666115  0.96888832  0.94860060    -0.73900
O1156       O  0.58178281  0.01074152  0.90508090    -0.74700
O1157       O  0.41200718  0.01360141  0.91539250    -0.74000
O1158       O  0.55011523  0.96671990  0.94168519    -0.74500
O1159       O  0.49301485  0.89321334  0.91689232    -0.74400
O1160       O  0.48346481  0.87485119  0.86092730    -0.74200
C1161       C  0.57041687  0.95437029  0.80428885     0.77600
C1162       C  0.49626822  0.08706412  0.84078637     0.78100
C1163       C  0.40556829  0.96971118  0.81037319     0.77000
C1164       C  0.41495435  0.99120880  0.94319245     0.77400
C1165       C  0.58146038  0.98875971  0.93315899     0.78500
C1166       C  0.48778211  0.86573192  0.89368002     0.77600
Zn1167     Zn  0.95631535  0.93451586  0.86940054     1.49700
Zn1168     Zn  0.04050525  0.98150468  0.89902301     1.49400
Zn1169     Zn  0.00921633  0.98625174  0.81703161     1.49100
Zn1170     Zn  0.95754112  0.03136056  0.87536701     1.49500
O1171       O  0.99151544  0.98346450  0.86590013    -1.83700
O1172       O  0.97930790  0.89908248  0.90724238    -0.74300
O1173       O  0.09544503  0.98029184  0.87104819    -0.74100
O1174       O  0.99195438  0.93787183  0.78725359    -0.73600
O1175       O  0.03745149  0.92796989  0.92824127    -0.74300
O1176       O  0.95922729  0.89816454  0.82605644    -0.73900
O1177       O  0.07015839  0.98235801  0.81608001    -0.74500
O1178       O  0.95882722  0.07257695  0.83481535    -0.73900
O1179       O  0.04054054  0.03164185  0.93272136    -0.74700
O1180       O  0.99735562  0.04096481  0.79494855    -0.74000
O1181       O  0.98272544  0.06299083  0.91545174    -0.74500
O1182       O  0.89993363  0.01496952  0.89204689    -0.74400
O1183       O  0.89832666  0.94717643  0.88635565    -0.74200
C1184       C  0.01067647  0.89860722  0.92788284     0.77600
C1185       C  0.10053207  0.97998487  0.83759617     0.78100
C1186       C  0.97609115  0.90324444  0.79592129     0.77000
C1187       C  0.97870631  0.07259378  0.80586504     0.77400
C1188       C  0.01471761  0.06110067  0.93547923     0.78500
C1189       C  0.88161751  0.98027823  0.89661588     0.77600
Zn1190     Zn  0.08133500  0.52350360  0.86738839     1.49700
Zn1191     Zn  0.02973990  0.47171214  0.80930475     1.49400
Zn1192     Zn  0.02531477  0.44245607  0.89108917     1.49100
Zn1193     Zn  0.98622968  0.52937683  0.86168805     1.49500
O1194       O  0.03085745  0.49069484  0.85795073    -1.83700
O1195       O  0.12199632  0.51924835  0.82735412    -0.74300
O1196       O  0.02234594  0.41053018  0.80739814    -0.74100
O1197       O  0.07564127  0.44260233  0.92634026    -0.73600
O1198       O  0.08591878  0.48058719  0.78915498    -0.74300
O1199       O  0.11068137  0.49849468  0.90852665    -0.73900
O1200       O  0.02456429  0.38715215  0.86291320    -0.74500
O1201       O  0.94644404  0.50687410  0.89527505    -0.73900
O1202       O  0.98342331  0.49572693  0.77883846    -0.74700
O1203       O  0.97049355  0.44891566  0.91925649    -0.74000
O1204       O  0.95391955  0.53734123  0.81703778    -0.74500
O1205       O  0.00281649  0.58307986  0.88357880    -0.74400
O1206       O  0.07128336  0.58196034  0.88423002    -0.74200
C1207       C  0.11955114  0.49801990  0.79927951     0.77600
C1208       C  0.02264443  0.38081238  0.82952846     0.78100
C1209       C  0.10629261  0.46790487  0.92937485     0.77000
C1210       C  0.94325030  0.47736648  0.91721127     0.77400
C1211       C  0.95463696  0.52032546  0.78700023     0.78500
C1212       C  0.03749490  0.59956759  0.89205859     0.77600
C1213       C  0.84406935  0.52113820  0.75244163    -0.19900
C1214       C  0.84939353  0.53075406  0.71657721    -0.06400
C1215       C  0.88988008  0.53955349  0.70386779     0.14400
C1216       C  0.92419222  0.53551253  0.72710181    -0.19900
C1217       C  0.91852362  0.52577502  0.76303792    -0.06400
C1218       C  0.87780473  0.51891202  0.77586795     0.14400
C1219       C  0.86951256  0.50758542  0.81404530    -0.23300
H1220       H  0.81301796  0.51478476  0.76216901     0.15700
H1221       H  0.95535578  0.54119079  0.71738476     0.15700
C1222       C  0.89788060  0.55498763  0.66682035    -0.23200
H1223       H  0.83604878  0.50086374  0.81868803     0.06000
H1224       H  0.87859577  0.53347990  0.83148603     0.09200
H1225       H  0.88726868  0.47969360  0.82169643     0.09200
H1226       H  0.80511864  0.57292852  0.06251557     0.09200
H1227       H  0.85137196  0.60117066  0.07303628     0.09200
H1228       H  0.82062724  0.57873076  0.10816746     0.05900
C1229       C  0.88324588  0.44311889  0.94760581    -0.19900
C1230       C  0.90726466  0.47867111  0.94119300    -0.06400
C1231       C  0.89516226  0.51651259  0.95626917     0.14400
C1232       C  0.85883188  0.51792014  0.97611053    -0.19900
C1233       C  0.83470825  0.48265612  0.98238436    -0.06400
C1234       C  0.84737109  0.44455852  0.96852482     0.14400
C1235       C  0.85145392  0.43732598  0.69655944    -0.23300
H1236       H  0.89255360  0.41412176  0.93640087     0.15700
H1237       H  0.84959373  0.54658178  0.98795669     0.15700
C1238       C  0.92119654  0.55540839  0.95303321    -0.23200
H1239       H  0.84906395  0.40329442  0.69480931     0.06000
H1240       H  0.82247764  0.44814392  0.70887238     0.09200
H1241       H  0.87845155  0.44540262  0.71377688     0.09200
H1242       H  0.92089405  0.56709738  0.92536579     0.09200
H1243       H  0.95365913  0.54928279  0.96174980     0.09200
H1244       H  0.90915878  0.58043534  0.96973318     0.05900
C1245       C  0.73937208  0.50797741  0.94122380    -0.19900
C1246       C  0.73911038  0.47635995  0.96684449    -0.06400
C1247       C  0.71258511  0.44194658  0.96206890     0.14400
C1248       C  0.68584267  0.44078658  0.93270885    -0.19900
C1249       C  0.68236052  0.47436894  0.90902065    -0.06400
C1250       C  0.71069552  0.50793924  0.91270035     0.14400
C1251       C  0.71032498  0.54427534  0.88757129    -0.23300
H1252       H  0.75971850  0.53440704  0.94517230     0.15700
H1253       H  0.66470799  0.41468086  0.93043985     0.15700
C1254       C  0.73568158  0.42936828  0.64457392    -0.23200
H1255       H  0.73673141  0.56575909  0.89287177     0.06000
H1256       H  0.68129904  0.56196355  0.89052869     0.09200
H1257       H  0.71295307  0.53348792  0.85994195     0.09200
H1258       H  0.70695660  0.41617010  0.65641554     0.09200
H1259       H  0.75661573  0.43892168  0.66649030     0.09200
H1260       H  0.75147046  0.40502752  0.62953006     0.05900
C1261       C  0.16864959  0.43213598  0.95297745    -0.19900
C1262       C  0.13888571  0.46284160  0.95701923    -0.06400
C1263       C  0.15619617  0.47738440  0.65008300     0.14400
C1264       C  0.19411487  0.47174566  0.66772747    -0.19900
C1265       C  0.21348062  0.43340039  0.66905295    -0.06400
C1266       C  0.20658385  0.43318147  0.97202292     0.14400
C1267       C  0.23794623  0.39997906  0.96565311    -0.23300
H1268       H  0.16338060  0.40878095  0.93312871     0.15700
H1269       H  0.20957527  0.49805740  0.67948292     0.15700
C1270       C  0.13698293  0.51956073  0.65030426    -0.23200
H1271       H  0.22524512  0.37585230  0.94784230     0.06000
H1272       H  0.24694001  0.38487103  0.99101186     0.09200
H1273       H  0.26601571  0.41315350  0.95290456     0.09200
H1274       H  0.10441548  0.51722817  0.65963845     0.09200
H1275       H  0.13761914  0.53350414  0.62345914     0.09200
H1276       H  0.15419644  0.54086202  0.66815716     0.05900
C1277       C  0.16566250  0.44479335  0.77858758    -0.19900
C1278       C  0.15765504  0.48699568  0.78086401    -0.06400
C1279       C  0.18597381  0.51591262  0.76653614     0.14400
C1280       C  0.22128263  0.50155816  0.74907067    -0.19900
C1281       C  0.22790210  0.45915563  0.74528955    -0.06400
C1282       C  0.20046339  0.43058527  0.76103054     0.14400
C1283       C  0.20779516  0.38504768  0.75899342    -0.23300
H1284       H  0.14425767  0.42272215  0.79046053     0.15700
H1285       H  0.24244911  0.52326333  0.73662441     0.15700
C1286       C  0.17782728  0.56135509  0.76802077    -0.23200
H1287       H  0.18415470  0.36698993  0.77397396     0.06000
H1288       H  0.20603393  0.37522744  0.73114925     0.09200
H1289       H  0.23894492  0.37772855  0.77014320     0.09200
H1290       H  0.17680486  0.57129589  0.79597257     0.09200
H1291       H  0.14760412  0.56817346  0.75483831     0.09200
H1292       H  0.20249447  0.57957424  0.75444899     0.05900
C1293       C  0.32843751  0.42706078  0.78974182    -0.19900
C1294       C  0.32158280  0.45549642  0.76214220    -0.06400
C1295       C  0.34119144  0.49456862  0.76330015     0.14400
C1296       C  0.37000706  0.50288006  0.79040080    -0.19900
C1297       C  0.38052271  0.47275410  0.81573429    -0.06400
C1298       C  0.35804289  0.43516399  0.81651605     0.14400
C1299       C  0.36804700  0.40221478  0.84354946    -0.23300
H1300       H  0.31323639  0.39715036  0.78869250     0.15700
H1301       H  0.38755448  0.53158592  0.78959107     0.15700
C1302       C  0.33489702  0.52702233  0.73498033    -0.23200
H1303       H  0.34779909  0.37456436  0.84024869     0.06000
H1304       H  0.36335049  0.41430171  0.87053979     0.09200
H1305       H  0.40087785  0.39256146  0.84091200     0.09200
H1306       H  0.32297489  0.55543301  0.74715045     0.09200
H1307       H  0.31250564  0.51742413  0.71408820     0.09200
H1308       H  0.36505971  0.53422988  0.72214698     0.05900
C1309       C  0.52933962  0.17364620  0.77718792    -0.19900
C1310       C  0.49109599  0.18227249  0.76082112    -0.06400
C1311       C  0.45432258  0.16531370  0.77524385     0.14400
C1312       C  0.45694485  0.13759878  0.80393443    -0.19900
C1313       C  0.49557886  0.12517859  0.81809801    -0.06400
C1314       C  0.53222901  0.14528135  0.80556442     0.14400
C1315       C  0.57472145  0.13649353  0.82094991    -0.23300
H1316       H  0.55746745  0.18679555  0.76604056     0.15700
H1317       H  0.42856267  0.12339441  0.81359428     0.15700
C1318       C  0.41221593  0.17548153  0.75977628    -0.23200
H1319       H  0.59869866  0.15803973  0.81030626     0.06000
H1320       H  0.58447051  0.10494753  0.81416287     0.09200
H1321       H  0.57429351  0.14007718  0.85011120     0.09200
H1322       H  0.40999706  0.16545046  0.73187989     0.09200
H1323       H  0.40727166  0.20914867  0.76101106     0.09200
H1324       H  0.38669231  0.15992560  0.77452373     0.05900
C1325       C  0.46500138  0.31157633  0.65608729    -0.19900
C1326       C  0.50009710  0.28779649  0.66384432    -0.06400
C1327       C  0.54182718  0.30788015  0.98553229     0.14400
C1328       C  0.54397861  0.34445134  0.96559938    -0.19900
C1329       C  0.50787858  0.36430887  0.95317126    -0.06400
C1330       C  0.46847940  0.34753681  0.96208618     0.14400
C1331       C  0.42860029  0.36706765  0.94952154    -0.23300
H1332       H  0.43479560  0.30051397  0.66463618     0.15700
H1333       H  0.57426256  0.35693434  0.95864814     0.15700
C1334       C  0.58146082  0.28634359  0.99590143    -0.23200
H1335       H  0.40111730  0.35692529  0.64042369     0.06000
H1336       H  0.42782269  0.36881956  0.92017326     0.09200
H1337       H  0.43144723  0.40348376  0.64033425     0.09200
H1338       H  0.58146047  0.25495055  0.98461504     0.09200
H1339       H  0.58341252  0.27192313  0.68714493     0.09200
H1340       H  0.60939070  0.30315466  0.98608297     0.05900
C1341       C  0.55003520  0.28075724  0.75470075    -0.19900
C1342       C  0.50883534  0.27500775  0.74302481    -0.06400
C1343       C  0.47868115  0.30441599  0.75113316     0.14400
C1344       C  0.49088792  0.34017266  0.76867539    -0.19900
C1345       C  0.53244825  0.34711968  0.77904526    -0.06400
C1346       C  0.56228253  0.31649854  0.77289090     0.14400
C1347       C  0.60708766  0.32207423  0.78396402    -0.23300
H1348       H  0.57291195  0.25788089  0.74837297     0.15700
H1349       H  0.46744787  0.36277186  0.77458854     0.15700
C1350       C  0.43338234  0.29895118  0.74160632    -0.23200
H1351       H  0.62642608  0.29596924  0.77540185     0.06000
H1352       H  0.60955881  0.32381105  0.81319866     0.09200
H1353       H  0.61992785  0.35076804  0.77190548     0.09200
H1354       H  0.41466835  0.29841870  0.76611576     0.09200
H1355       H  0.42694077  0.26999000  0.72727325     0.09200
H1356       H  0.42304007  0.32515346  0.72471151     0.05900
C1357       C  0.45612730  0.77903251  0.95237714    -0.19900
C1358       C  0.49515364  0.76237944  0.96078504    -0.06400
C1359       C  0.52971797  0.77342554  0.93974054     0.14400
C1360       C  0.52517545  0.80370094  0.91307676    -0.19900
C1361       C  0.48686974  0.82287287  0.90691339    -0.06400
C1362       C  0.45144074  0.80826651  0.92500529     0.14400
C1363       C  0.40908209  0.82540271  0.91663529    -0.23300
H1364       H  0.42971658  0.77124138  0.96881957     0.15700
H1365       H  0.55246366  0.81536373  0.89947370     0.15700
C1366       C  0.57219521  0.75624513  0.94746395    -0.23200
H1367       H  0.38473785  0.81154250  0.93381691     0.06000
H1368       H  0.40078779  0.81871624  0.88869185     0.09200
H1369       H  0.40905909  0.85917265  0.92023286     0.09200
H1370       H  0.57157922  0.72253455  0.94348237     0.09200
H1371       H  0.58172962  0.76296015  0.97513144     0.09200
H1372       H  0.59608863  0.76968949  0.92960765     0.05900
C1373       C  0.49667840  0.63146640  0.72320054    -0.19900
C1374       C  0.52376256  0.66523568  0.72620856    -0.06400
C1375       C  0.56071623  0.66128782  0.74647307     0.14400
C1376       C  0.56886435  0.62389708  0.76419241    -0.19900
C1377       C  0.54127624  0.59010198  0.76180378    -0.06400
C1378       C  0.50491507  0.59389918  0.74022045     0.14400
C1379       C  0.47328665  0.55953104  0.73586177    -0.23300
H1380       H  0.46829403  0.63477760  0.70781128     0.15700
H1381       H  0.59661082  0.62131544  0.78056928     0.15700
C1382       C  0.59195716  0.69607282  0.74904623    -0.23200
H1383       H  0.44682240  0.56870431  0.71846458     0.06000
H1384       H  0.46020085  0.55067087  0.76194226     0.09200
H1385       H  0.48802064  0.53260699  0.72350188     0.09200
H1386       H  0.57816816  0.72259222  0.76265787     0.09200
H1387       H  0.60187329  0.70572531  0.72213113     0.09200
H1388       H  0.62011147  0.68686421  0.76433070     0.05900
C1389       C  0.54978379  0.64931795  0.97663263    -0.19900
C1390       C  0.51183820  0.66932533  0.98038505    -0.06400
C1391       C  0.47522450  0.65131456  0.96608571     0.14400
C1392       C  0.47786434  0.61469690  0.94684276    -0.19900
C1393       C  0.51621340  0.59555099  0.94196697    -0.06400
C1394       C  0.55257302  0.61266717  0.95780996     0.14400
C1395       C  0.59419342  0.59171559  0.95638920    -0.23300
H1396       H  0.57728437  0.66232904  0.98924755     0.15700
H1397       H  0.45001643  0.60135712  0.93505610     0.15700
C1398       C  0.42825680  0.67212361  0.63871609    -0.23200
H1399       H  0.61790574  0.60744949  0.97319284     0.06000
H1400       H  0.60614078  0.59207655  0.92899026     0.09200
H1401       H  0.59110495  0.55946288  0.96613669     0.09200
H1402       H  0.42709505  0.70197186  0.62441643     0.09200
H1403       H  0.42261379  0.67698208  0.66726804     0.09200
H1404       H  0.40267419  0.65237854  0.62817389     0.05900
C1405       C  0.17893121  0.93883851  0.77628732    -0.19900
C1406       C  0.19843628  0.97539873  0.76494729    -0.06400
C1407       C  0.19140868  0.01215938  0.78352516     0.14400
C1408       C  0.16303592  0.01193252  0.81159778    -0.19900
C1409       C  0.14171505  0.97580195  0.82147405    -0.06400
C1410       C  0.15153178  0.93844323  0.80494799     0.14400
C1411       C  0.13134226  0.89846492  0.81653557    -0.23300
H1412       H  0.18314244  0.91094861  0.76138197     0.15700
H1413       H  0.15459691  0.04072944  0.82365851     0.15700
C1414       C  0.21101449  0.05231867  0.77187466    -0.23200
H1415       H  0.14185600  0.87220257  0.80048728     0.06000
H1416       H  0.09702415  0.90022784  0.81407468     0.09200
H1417       H  0.13963014  0.89207647  0.84463260     0.09200
H1418       H  0.20229187  0.05929827  0.74396837     0.09200
H1419       H  0.24527360  0.05031355  0.77430585     0.09200
H1420       H  0.20085582  0.07833493  0.78837222     0.05900
C1421       C  0.35101539  0.03277718  0.63193589    -0.19900
C1422       C  0.37908222  0.98859294  0.96790923    -0.06400
C1423       C  0.37065117  0.95288786  0.98890684     0.14400
C1424       C  0.33257210  0.94924109  0.00648923    -0.19900
C1425       C  0.30388045  0.99438532  0.67033153    -0.06400
C1426       C  0.31334656  0.03033813  0.65040655     0.14400
C1427       C  0.28512901  0.06703701  0.64862225    -0.23300
H1428       H  0.35722350  0.05956775  0.61537654     0.15700
H1429       H  0.32555621  0.92141684  0.02140255     0.15700
C1430       C  0.40056718  0.91761267  0.99233895    -0.23200
H1431       H  0.27442350  0.07214738  0.62092204     0.06000
H1432       H  0.30257230  0.09478279  0.65759309     0.09200
H1433       H  0.25754122  0.06369885  0.66572367     0.09200
H1434       H  0.43016808  0.92844279  0.00463025     0.09200
H1435       H  0.40658066  0.90467685  0.96596711     0.09200
H1436       H  0.38815183  0.89223652  0.00926294     0.05900
C1437       C  0.34509125  0.93631677  0.78056066    -0.19900
C1438       C  0.36911618  0.97185000  0.78651608    -0.06400
C1439       C  0.35588114  0.01009954  0.77216349     0.14400
C1440       C  0.31844158  0.01185396  0.75312556    -0.19900
C1441       C  0.29367701  0.97671610  0.74815649    -0.06400
C1442       C  0.30743726  0.93833539  0.76145310     0.14400
C1443       C  0.28335663  0.89933864  0.75427008    -0.23300
H1444       H  0.35537388  0.90711990  0.79148897     0.15700
H1445       H  0.30875455  0.04063352  0.74101294     0.15700
C1446       C  0.38171502  0.04900706  0.77560711    -0.23200
H1447       H  0.30018726  0.87176595  0.76413268     0.06000
H1448       H  0.27790428  0.89582713  0.72542175     0.09200
H1449       H  0.25324598  0.90016670  0.76797018     0.09200
H1450       H  0.41367121  0.04372342  0.76592426     0.09200
H1451       H  0.38307368  0.05892436  0.80355122     0.09200
H1452       H  0.36834939  0.07485921  0.75989439     0.05900
C1453       C  0.79148833  0.93889169  0.95248717    -0.19900
C1454       C  0.78743537  0.97127643  0.97628682    -0.06400
C1455       C  0.80846159  0.00880228  0.96957938     0.14400
C1456       C  0.83522680  0.01216819  0.94056279    -0.19900
C1457       C  0.84326546  0.97825542  0.91881855    -0.06400
C1458       C  0.81922094  0.94165450  0.92392574     0.14400
C1459       C  0.82332239  0.90471183  0.90049670    -0.23300
H1460       H  0.76696019  0.89919045  0.61824074     0.15700
H1461       H  0.85264138  0.04060793  0.93686502     0.15700
C1462       C  0.80455597  0.04467666  0.99420285    -0.23200
H1463       H  0.79924269  0.88088100  0.90637309     0.06000
H1464       H  0.85400042  0.89009383  0.90475542     0.09200
H1465       H  0.81947864  0.91414998  0.87234407     0.09200
H1466       H  0.81575181  0.03594609  0.02109467     0.09200
H1467       H  0.77161278  0.05407983  0.99559800     0.09200
H1468       H  0.82313835  0.07175095  0.98513747     0.05900
C1469       C  0.65764462  0.90440872  0.75297457    -0.19900
C1470       C  0.67920230  0.93945860  0.74057650    -0.06400
C1471       C  0.66407993  0.97889737  0.74844926     0.14400
C1472       C  0.62700052  0.98225108  0.76715413    -0.19900
C1473       C  0.60518211  0.94736351  0.77964778    -0.06400
C1474       C  0.62071281  0.90781895  0.77237819     0.14400
C1475       C  0.59976856  0.86933998  0.78635881    -0.23300
H1476       H  0.67010877  0.87423508  0.74788531     0.15700
H1477       H  0.61586555  0.01271843  0.77327285     0.15700
C1478       C  0.68740395  0.01817352  0.73965294    -0.23200
H1479       H  0.61698155  0.84123516  0.77921471     0.06000
H1480       H  0.56788744  0.86660719  0.77501806     0.09200
H1481       H  0.59813163  0.87044151  0.81565524     0.09200
H1482       H  0.71768015  0.01289569  0.72689505     0.09200
H1483       H  0.69392283  0.03534739  0.76436127     0.09200
H1484       H  0.66807652  0.03767285  0.72180905     0.05900
C1485       C  0.68211175  0.00970080  0.98392753    -0.19900
C1486       C  0.69300000  0.96939982  0.99358048    -0.06400
C1487       C  0.66810460  0.93607364  0.98232216     0.14400
C1488       C  0.63171250  0.94383992  0.96301949    -0.19900
C1489       C  0.61983434  0.98417806  0.95431926    -0.06400
C1490       C  0.64556174  0.01760360  0.96443349     0.14400
C1491       C  0.63369373  0.06140565  0.95621997    -0.23300
H1492       H  0.70146613  0.03506182  0.99274517     0.15700
H1493       H  0.61254156  0.91812848  0.95430465     0.15700
C1494       C  0.68019537  0.89228891  0.99035289    -0.23200
H1495       H  0.65636787  0.08368753  0.96775434     0.06000
H1496       H  0.60264079  0.06771991  0.96738399     0.09200
H1497       H  0.63278693  0.06666746  0.92718153     0.09200
H1498       H  0.68153939  0.88678571  0.01924915     0.09200
H1499       H  0.71111592  0.88608370  0.97906631     0.09200
H1500       H  0.65756626  0.86990368  0.97890483     0.05900
C1501       C  0.00543672  0.13421131  0.95174969    -0.19900
C1502       C  0.02142309  0.09540700  0.96115858    -0.06400
C1503       C  0.04095151  0.09072938  0.99477008     0.14400
C1504       C  0.04496014  0.12507814  0.01727286    -0.19900
C1505       C  0.02799444  0.16646820  0.66920782    -0.06400
C1506       C  0.00542810  0.16637793  0.63687429     0.14400
C1507       C  0.98241466  0.20346472  0.62281788    -0.23300
H1508       H  0.98579257  0.13127790  0.59203093     0.15700
H1509       H  0.06088055  0.12180463  0.04254229     0.15700
C1510       C  0.05674399  0.04963561  0.00745668    -0.23200
H1511       H  0.99593487  0.21348391  0.59718428     0.06000
H1512       H  0.98321713  0.22989019  0.64102671     0.09200
H1513       H  0.94916482  0.19512086  0.61850547     0.09200
H1514       H  0.08218032  0.03933276  0.99017818     0.09200
H1515       H  0.03097368  0.02658430  0.00712038     0.09200
H1516       H  0.06927542  0.05116020  0.03491250     0.05900
C1517       C  0.03453918  0.16846615  0.77493962    -0.19900
C1518       C  0.00840352  0.18235249  0.74767024    -0.06400
C1519       C  0.96985241  0.16205247  0.74144985     0.14400
C1520       C  0.95956106  0.12667489  0.76140449    -0.19900
C1521       C  0.98689868  0.11181361  0.78749873    -0.06400
C1522       C  0.02444597  0.13326639  0.79477483     0.14400
C1523       C  0.05467713  0.11812552  0.82270933    -0.23300
H1524       H  0.06418450  0.18381440  0.77917346     0.15700
H1525       H  0.93068645  0.11022623  0.75606734     0.15700
C1526       C  0.93932262  0.17695304  0.71386133    -0.23200
H1527       H  0.08237890  0.13870389  0.82504033     0.06000
H1528       H  0.06564946  0.08693728  0.81593716     0.09200
H1529       H  0.03919823  0.11678428  0.84881382     0.09200
H1530       H  0.94961213  0.20608530  0.70096230     0.09200
H1531       H  0.90892566  0.18271832  0.72642708     0.09200
H1532       H  0.93498784  0.15314725  0.69327079     0.05900
C1533       C  0.99351926  0.28887670  0.77302182    -0.19900
C1534       C  0.03320714  0.27426309  0.76486908    -0.07200
C1535       C  0.06798044  0.28958800  0.78421551     0.14400
C1536       C  0.06264657  0.32109940  0.80905580    -0.19900
C1537       C  0.02359929  0.33865080  0.81449969    -0.06400
C1538       C  0.98844002  0.32134762  0.79712369     0.14400
C1539       C  0.94582888  0.33871464  0.80266396    -0.23300
H1540       H  0.96684738  0.27742431  0.75819699     0.15700
H1541       H  0.08972095  0.33460528  0.82197268     0.15700
C1542       C  0.11118780  0.27409701  0.77760106    -0.23200
H1543       H  0.92160060  0.32164947  0.78742839     0.06000
H1544       H  0.94517342  0.37146006  0.79397695     0.09200
H1545       H  0.93793562  0.33661417  0.83114702     0.09200
H1546       H  0.12046306  0.28095955  0.74998269     0.09200
H1547       H  0.11215943  0.24038605  0.78237570     0.09200
H1548       H  0.13458075  0.28880542  0.79537909     0.05900
C1549       C  0.95586688  0.83180476  0.77845506    -0.19900
C1550       C  0.98102768  0.86684431  0.77241122    -0.06400
C1551       C  0.01429178  0.86379387  0.74803670     0.14400
C1552       C  0.02271193  0.82564915  0.73259116    -0.19900
C1553       C  0.99828860  0.79051063  0.73951249    -0.06400
C1554       C  0.96383178  0.79393407  0.76227565     0.14400
C1555       C  0.93486384  0.75804611  0.76946506    -0.23300
H1556       H  0.93023649  0.83374552  0.79670694     0.15700
H1557       H  0.04919878  0.82308107  0.71536789     0.15700
C1558       C  0.04207708  0.89991668  0.73848645    -0.23200
H1559       H  0.90800293  0.76714683  0.78573212     0.06000
H1560       H  0.95141715  0.73346731  0.78424081     0.09200
H1561       H  0.92237841  0.74564766  0.74424640     0.09200
H1562       H  0.05847628  0.91157816  0.76231625     0.09200
H1563       H  0.02321318  0.92479834  0.72624214     0.09200
H1564       H  0.06619917  0.89149975  0.71912484     0.05900
C1565       C  0.05155253  0.80208150  0.97344181    -0.19900
C1566       C  0.01516753  0.78702836  0.98947208    -0.06400
C1567       C  0.97811881  0.80969553  0.98621942     0.14400
C1568       C  0.97837164  0.84680343  0.96717183    -0.19900
C1569       C  0.01475658  0.86224692  0.95139270    -0.06400
C1570       C  0.05193951  0.83969138  0.95464550     0.14400
C1571       C  0.09165934  0.85462289  0.93780662    -0.23300
H1572       H  0.07804705  0.77587771  0.65066090     0.15700
H1573       H  0.94963028  0.86377128  0.96437245     0.15700
C1574       C  0.93779938  0.79555670  0.00246400    -0.23200
H1575       H  0.11811387  0.82245805  0.61674320     0.06000
H1576       H  0.10133141  0.88454018  0.94935048     0.09200
H1577       H  0.08690839  0.85844184  0.90882397     0.09200
H1578       H  0.92785542  0.81823286  0.02232987     0.09200
H1579       H  0.94026632  0.76503283  0.01555644     0.09200
H1580       H  0.91341200  0.79312623  0.98154574     0.05900
C1581       C  0.99841477  0.65219412  0.92533914    -0.19900
C1582       C  0.03733510  0.63730378  0.91468266    -0.06400
C1583       C  0.07381158  0.65481036  0.93034995     0.14400
C1584       C  0.07000490  0.68329720  0.95795268    -0.19900
C1585       C  0.03103691  0.69483634  0.97047502    -0.06400
C1586       C  0.99485046  0.68006389  0.95322834     0.14400
C1587       C  0.95224179  0.69168148  0.96554550    -0.23300
H1588       H  0.97014644  0.63995187  0.91343348     0.15700
H1589       H  0.09767261  0.69459771  0.97150171     0.15700
C1590       C  0.11693967  0.64265760  0.91964584    -0.23200
H1591       H  0.92720430  0.67581093  0.95028776     0.06000
H1592       H  0.94819794  0.72523661  0.96180120     0.09200
H1593       H  0.94847891  0.68329909  0.99389370     0.09200
H1594       H  0.12075358  0.64769761  0.89076563     0.09200
H1595       H  0.12249228  0.60992288  0.92665806     0.09200
H1596       H  0.14129416  0.66120301  0.93339514     0.05900
loop_ 
_geom_bond_atom_site_label_1 
_geom_bond_atom_site_label_2 
_geom_bond_distance 
_geom_bond_site_symmetry_2 
_ccdc_geom_bond_type 
N1            C2   1.355       .  A
N1          C537   1.360   1_455  A
N1          C502   1.437       .  S
C2          C521   1.486       .  S
C2          C535   1.381       .  A
C3            C4   1.379       .  A
C3         C1066   1.382       .  A
C3            H6   1.082       .  S
C4            C5   1.383       .  A
C4            H7   1.081       .  S
C5         N1065   1.358       .  A
C5          C489   1.490       .  S
N8           C12   1.363       .  A
N8            C9   1.362       .  A
N8          C454   1.442       .  S
C9          C470   1.492       .  S
C9           C10   1.382       .  A
C10          C11   1.374       .  A
C10          H13   1.082       .  S
C11          C12   1.383       .  A
C11        H1078   1.082   1_554  S
C12         C441   1.493       .  S
H14         C543   1.082       .  S
N15          C16   1.353       .  A
N15         C551   1.354       .  A
N15         C422   1.433       .  S
C16         C390   1.483       .  S
C16         C549   1.384       .  A
C17          C18   1.381       .  A
C17        C1080   1.384       .  A
C17          H20   1.082       .  S
C18          C19   1.381       .  A
C18          H21   1.082       .  S
C19        N1079   1.355       .  A
C19         C406   1.483       .  S
N22          C26   1.354       .  A
N22          C23   1.355       .  A
N22         C377   1.435       .  S
C23         C342   1.486       .  S
C23          C24   1.385       .  A
C24          C25   1.382       .  A
C24          H27   1.082       .  S
C25          C26   1.382       .  A
C25        H1092   1.082   1_554  S
C26         C361   1.486       .  S
H28         C557   1.082       .  S
N29          C30   1.356       .  A
N29         C565   1.355       .  A
N29         C326   1.441       .  S
C30         C294   1.480       .  S
C30         C563   1.384       .  A
C31          C32   1.378       .  A
C31        C1094   1.383   1_554  A
C31          H34   1.082       .  S
C32          C33   1.382       .  A
C32          H35   1.081       .  S
C33        N1093   1.358       .  A
C33         C310   1.489       .  S
N36          C40   1.355       .  A
N36          C37   1.353       .  A
N36         C278   1.437       .  S
C37         C246   1.480       .  S
C37          C38   1.383       .  A
C38          C39   1.379   1_554  A
C38          H41   1.082       .  S
C39          C40   1.380   1_556  A
C39        H1106   1.082       .  S
C40         C262   1.480   1_554  S
H42         C571   1.082       .  S
N43          C47   1.361       .  A
N43          C44   1.355       .  A
N43         C217   1.435       .  S
C44         C230   1.489       .  S
C44          C45   1.383       .  A
C45          C46   1.378   1_554  A
C45          H48   1.082       .  S
C46          C47   1.384   1_556  A
C46        H1113   1.081       .  S
C47         C201   1.496   1_554  S
H49         C578   1.081       .  S
N50          C51   1.352       .  A
N50         C586   1.352       .  A
N50         C169   1.437       .  S
C51         C182   1.479       .  S
C51         C584   1.385       .  A
C52          C53   1.378       .  A
C52        C1115   1.384       .  A
C52          H55   1.082       .  S
C53          C54   1.382       .  A
C53          H56   1.082       .  S
C54        N1114   1.354       .  A
C54         C150   1.482       .  S
Zn57         O61   1.948       .  S
Zn57         O62   2.003       .  S
Zn57         O66   2.022       .  S
Zn57         O73   1.982       .  S
Zn58         O61   1.959       .  S
Zn58         O63   2.050       .  S
Zn58         O65   2.053       .  S
Zn58         O69   1.992       .  S
Zn59         O61   1.928       .  S
Zn59         O64   1.991       .  S
Zn59         O67   1.993       .  S
Zn59         O70   1.976       .  S
Zn60         O61   1.997       .  S
Zn60         O68   2.081       .  S
Zn60         O71   2.058       .  S
Zn60         O72   2.073       .  S
O62          C74   1.274       .  A
O63          C75   1.277       .  A
O64          C76   1.271       .  A
O65          C74   1.278       .  A
O66          C76   1.271       .  A
O67          C75   1.270       .  A
O68          C77   1.278       .  A
O69          C78   1.271       .  A
O70          C77   1.267       .  A
O71          C78   1.280       .  A
O72          C79   1.280       .  A
O73          C79   1.270       .  A
C74         C185   1.497       .  S
C75         C313   1.493       .  S
C76         C281   1.482       .  S
C77         C233   1.482       .  S
C78         C329   1.483       .  S
C79         C265   1.489       .  S
Zn80         O84   2.001       .  S
Zn80         O85   2.069       .  S
Zn80         O89   2.056       .  S
Zn80         O96   2.063       .  S
Zn81         O84   1.944   1_545  S
Zn81         O86   2.002       .  S
Zn81         O88   1.972   1_545  S
Zn81         O92   2.009       .  S
Zn82         O84   1.949   1_545  S
Zn82         O87   1.952   1_545  S
Zn82         O90   2.041       .  S
Zn82         O93   2.040       .  S
Zn83         O84   1.927       .  S
Zn83         O91   2.009       .  S
Zn83         O94   1.992       .  S
Zn83         O95   1.979       .  S
O85          C97   1.279       .  A
O86          C98   1.269       .  A
O87          C99   1.266       .  A
O88          C97   1.269       .  A
O89          C99   1.279       .  A
O90          C98   1.277       .  A
O91         C100   1.272       .  A
O92         C101   1.272   1_545  A
O93         C100   1.277   1_545  A
O94         C101   1.272       .  A
O95         C102   1.268       .  A
O96         C102   1.276       .  A
C97         C409   1.483       .  S
C98         C249   1.503       .  S
C99         C374   1.471       .  S
C100        C358   1.496       .  S
C101        C425   1.468       .  S
C102        C297   1.473       .  S
Zn103       O107   1.947       .  S
Zn103       O108   1.963       .  S
Zn103       O112   2.027       .  S
Zn103       O119   2.032       .  S
Zn104       O107   2.006   1_455  S
Zn104       O109   2.083       .  S
Zn104       O111   2.065       .  S
Zn104       O115   2.102   1_565  S
Zn105       O107   1.938   1_455  S
Zn105       O110   2.001   1_455  S
Zn105       O113   1.966       .  S
Zn105       O116   1.987   1_465  S
Zn106       O107   1.941   1_545  S
Zn106       O114   2.026       .  S
Zn106       O117   1.981       .  S
Zn106       O118   2.020       .  S
O108        C120   1.268   1_655  A
O109        C121   1.279       .  A
O110        C122   1.269       .  A
O111        C120   1.280       .  A
O112        C122   1.275       .  A
O113        C121   1.266       .  A
O114        C123   1.273       .  A
O115        C124   1.283       .  A
O116        C123   1.270       .  A
O117        C124   1.271   1_655  A
O118        C125   1.275   1_545  A
O119        C125   1.274       .  A
C120        C505   1.477       .  S
C121        C345   1.476       .  S
C122        C486   1.496       .  S
C123        C457   1.465       .  S
C124        C438   1.499       .  S
C125        C393   1.502       .  S
Zn126       O130   1.958       .  S
Zn126       O131   2.036       .  S
Zn126       O135   1.979       .  S
Zn126       O142   2.045       .  S
Zn127       O130   1.935       .  S
Zn127       O132   1.987       .  S
Zn127       O134   1.989       .  S
Zn127       O138   2.009   1_455  S
Zn128       O130   2.000       .  S
Zn128       O133   2.056       .  S
Zn128       O136   2.084       .  S
Zn128       O139   2.067   1_455  S
Zn129       O130   1.942   1_655  S
Zn129       O137   1.959       .  S
Zn129       O140   2.006       .  S
Zn129       O141   2.011   1_655  S
O131        C143   1.276       .  A
O132        C144   1.269       .  A
O133        C145   1.278       .  A
O134        C143   1.272       .  A
O135        C145   1.270       .  A
O136        C144   1.279       .  A
O137        C146   1.266       .  A
O138        C147   1.271       .  A
O139        C146   1.280       .  A
O140        C147   1.272       .  A
O141        C148   1.273       .  A
O142        C148   1.274       .  A
C143        C214   1.477       .  S
C144        C473   1.482       .  S
C145        C198   1.476       .  S
C146        C166   1.479       .  S
C147        C153   1.486       .  S
C148        C518   1.504       .  S
C149        C150   1.400       .  A
C149        C154   1.401       .  A
C149        H156   1.083       .  S
C150        C151   1.414       .  A
C151        C152   1.403       .  A
C151        C158   1.508       .  S
C152        C153   1.407       .  A
C152        H157   1.085       .  S
C153        C154   1.420       .  A
C154        C155   1.509       .  S
C155        H159   1.111       .  S
C155        H160   1.109       .  S
C155        H161   1.110       .  S
C158       H1226   1.107       .  S
C158       H1227   1.111       .  S
C158       H1228   1.110       .  S
H162        C690   1.107       .  S
H163        C690   1.110       .  S
H164        C690   1.110       .  S
C165        C166   1.402       .  A
C165        C170   1.405       .  A
C165        H172   1.085       .  S
C166        C167   1.421       .  A
C167        C168   1.399       .  A
C167        C174   1.511       .  S
C168        C169   1.396       .  A
C168        H173   1.085       .  S
C169        C170   1.414       .  A
C170        C703   1.502       .  S
C171       C1234   1.502       .  S
C171        H175   1.110       .  S
C171        H176   1.104       .  S
C171        H177   1.110       .  S
C174        H178   1.109       .  S
C174        H179   1.111       .  S
C174        H180   1.111       .  S
C181        C182   1.404       .  A
C181        C186   1.412       .  A
C181        H188   1.084       .  S
C182        C183   1.410       .  A
C183        C184   1.399       .  A
C183        C722   1.509       .  S
C184        C185   1.410       .  A
C184        H189   1.084       .  S
C185        C186   1.420       .  A
C186        C187   1.506       .  S
C187        H191   1.111       .  S
C187        H192   1.109       .  S
C187        H193   1.110       .  S
C190       C1247   1.509       .  S
C190        H194   1.111       .  S
C190        H195   1.107   1_556  S
C190        H196   1.110       .  S
C197        C198   1.402       .  A
C197        C202   1.408       .  A
C197        H204   1.084       .  S
C198        C731   1.414       .  A
C199        C200   1.406   1_556  A
C199       C1262   1.414       .  A
C199        C206   1.508       .  S
C200        C201   1.404   1_554  A
C200        H205   1.082       .  S
C201       C1266   1.420       .  A
C202        C733   1.418       .  A
C202        C203   1.508       .  S
C203        H207   1.111       .  S
C203        H208   1.107       .  S
C203        H209   1.107       .  S
C206        H210   1.110       .  S
C206        H211   1.109       .  S
C206        H212   1.111   1_556  S
C213        C214   1.406       .  A
C213        C218   1.399       .  A
C213        H220   1.085       .  S
C214        C215   1.412       .  A
C215        C216   1.406       .  A
C215        C222   1.505       .  S
C216        C217   1.403       .  A
C216        H221   1.084       .  S
C217        C218   1.406       .  A
C218        C219   1.505       .  S
C219        H223   1.111       .  S
C219        H224   1.105       .  S
C219        H225   1.109       .  S
C222        H226   1.109       .  S
C222        H227   1.111       .  S
C222        H228   1.111       .  S
C229        C230   1.406       .  A
C229        C234   1.412       .  A
C229        H236   1.082       .  S
C230        C231   1.414       .  A
C231        C232   1.403       .  A
C231        C238   1.507       .  S
C232        C233   1.403       .  A
C232        H237   1.084       .  S
C233        C234   1.412       .  A
C234        C235   1.505       .  S
C235        H239   1.111       .  S
C235        H240   1.110       .  S
C235        H241   1.110       .  S
C238        H242   1.110       .  S
C238        H243   1.109       .  S
C238        H244   1.110       .  S
C245        C246   1.397       .  A
C245        C250   1.407       .  A
C245        H252   1.084       .  S
C246        C247   1.409       .  A
C247        C248   1.406       .  A
C247        C254   1.506       .  S
C248        C249   1.410       .  A
C248        H253   1.083       .  S
C249        C250   1.429       .  A
C250        C251   1.510       .  S
C251        H255   1.111       .  S
C251        H256   1.110       .  S
C251        H257   1.110       .  S
C254        H258   1.110       .  S
C254        H259   1.109       .  S
C254        H260   1.111       .  S
C261        C262   1.403       .  A
C261       C1330   1.407       .  A
C261        H268   1.084       .  S
C262       C1327   1.408       .  A
C263        C264   1.404       .  A
C263        C794   1.411       .  A
C263        C270   1.507       .  S
C264        C265   1.408       .  A
C264        H269   1.084       .  S
C265        C266   1.415       .  A
C266        C793   1.409       .  A
C266        C267   1.506       .  S
C267        H272   1.111       .  S
C267        H803   1.111       .  S
C267        H805   1.110       .  S
C270        H274   1.110       .  S
C270        H276   1.111       .  S
C270        H807   1.102       .  S
H271       C1331   1.111       .  S
H273       C1331   1.110       .  S
H275       C1334   1.106   1_554  S
C277        C278   1.403       .  A
C277        C282   1.408       .  A
C277        H284   1.083       .  S
C278        C279   1.408       .  A
C279        C280   1.395       .  A
C279        C286   1.505       .  S
C280        C281   1.405       .  A
C280        H285   1.085       .  S
C281        C282   1.416       .  A
C282        C283   1.506       .  S
C283        H287   1.111       .  S
C283        H288   1.110       .  S
C283        H289   1.110       .  S
C286        H290   1.110       .  S
C286        H291   1.108       .  S
C286        H292   1.110       .  S
C293        C294   1.403       .  A
C293        C298   1.405       .  A
C293        H300   1.084       .  S
C294        C295   1.413       .  A
C295        C296   1.406       .  A
C295        C302   1.507       .  S
C296        C297   1.403       .  A
C296        H301   1.084       .  S
C297        C298   1.411       .  A
C298        C299   1.506       .  S
C299        H303   1.111       .  S
C299        H304   1.110       .  S
C299        H305   1.108       .  S
C302        H306   1.108       .  S
C302        H307   1.110       .  S
C302        H308   1.111       .  S
C309        C310   1.397       .  A
C309        C314   1.401       .  A
C309        H316   1.083       .  S
C310        C311   1.416       .  A
C311        C312   1.410       .  A
C311        C318   1.506       .  S
C312        C313   1.406       .  A
C312        H317   1.084       .  S
C313        C314   1.425       .  A
C314        C315   1.509       .  S
C315        H319   1.110       .  S
C315        H320   1.108       .  S
C315        H321   1.110       .  S
C318        H322   1.108       .  S
C318        H323   1.111       .  S
C318        H324   1.111       .  S
C325        C326   1.401       .  A
C325        C330   1.402       .  A
C325        H332   1.084       .  S
C326        C327   1.412       .  A
C327        C328   1.406       .  A
C327        C866   1.503       .  S
C328        C329   1.404       .  A
C328        H333   1.084       .  S
C329        C330   1.418       .  A
C330        C331   1.509       .  S
C331        H335   1.111       .  S
C331        H336   1.109       .  S
C331        H337   1.111       .  S
C334       C1391   1.503       .  S
C334        H338   1.104       .  S
C334        H339   1.110   1_556  S
C334        H340   1.111       .  S
C341        C342   1.403       .  A
C341        C346   1.406       .  A
C341        H348   1.084       .  S
C342        C343   1.415   1_565  A
C343        C344   1.408       .  A
C343        C350   1.506       .  S
C344        C345   1.403   1_545  A
C344        H349   1.084       .  S
C345        C346   1.413       .  A
C346        C347   1.508       .  S
C347        H351   1.111       .  S
C347        H352   1.110       .  S
C347        H353   1.110       .  S
C350        H354   1.110       .  S
C350        H355   1.107       .  S
C350        H356   1.111       .  S
C357        C362   1.405       .  A
C357       C1422   1.407   1_545  A
C357        H364   1.084       .  S
C358        C359   1.424       .  A
C358        C889   1.407   1_565  A
C359        C360   1.404       .  A
C359        C366   1.509       .  S
C360        C893   1.399       .  A
C360        H365   1.083       .  S
C361        C362   1.414   1_564  A
C361       C1424   1.399       .  A
C362        C363   1.507       .  S
C363        H367   1.110       .  S
C363        H368   1.111       .  S
C363        H369   1.107   1_556  S
C366        H370   1.110       .  S
C366        H371   1.108       .  S
C366        H372   1.111       .  S
C373        C374   1.402       .  A
C373        C378   1.405       .  A
C373        H380   1.084       .  S
C374        C375   1.418   1_565  A
C375        C376   1.396       .  A
C375        C382   1.511       .  S
C376        C377   1.397   1_545  A
C376        H381   1.084       .  S
C377        C378   1.412       .  A
C378        C379   1.503       .  S
C379        H383   1.111       .  S
C379        H384   1.110       .  S
C379        H385   1.105       .  S
C382        H386   1.110       .  S
C382        H387   1.109       .  S
C382        H388   1.111       .  S
C389        C390   1.401       .  A
C389        C394   1.409       .  A
C389        H928   1.082       .  S
C390        C391   1.409       .  A
C391        C392   1.405   1_565  A
C391        C398   1.507   1_565  S
C392        C393   1.411   1_545  A
C392        H397   1.083       .  S
C393        C394   1.423       .  A
C394        C395   1.508       .  S
C395        H399   1.111       .  S
C395        H400   1.109       .  S
C395        H401   1.110       .  S
H396       C1453   1.082       .  S
C398        H402   1.110       .  S
C398        H403   1.107       .  S
C398        H404   1.111       .  S
C405        C406   1.406       .  A
C405        C410   1.410       .  A
C405        H412   1.084       .  S
C406        C407   1.412       .  A
C407        C408   1.399       .  A
C407        C414   1.508   1_565  S
C408        C409   1.405       .  A
C408        H413   1.085   1_565  S
C409        C410   1.413       .  A
C410        C411   1.506       .  S
C411        H415   1.111       .  S
C411        H416   1.110       .  S
C411        H417   1.111       .  S
C414        H418   1.107       .  S
C414        H419   1.111       .  S
C414        H420   1.110       .  S
C421        C422   1.404   1_545  A
C421        C426   1.406       .  A
C421        H428   1.080       .  S
C422        C423   1.407       .  A
C423        C424   1.395       .  A
C423        C430   1.506       .  S
C424        C425   1.402       .  A
C424        H429   1.085       .  S
C425        C426   1.410   1_565  A
C426        C427   1.505       .  S
C427        H431   1.111       .  S
C427        H432   1.110       .  S
C427        H433   1.110       .  S
C430        H434   1.106       .  S
C430        H435   1.106       .  S
C430        H436   1.111       .  S
C437        C438   1.407       .  A
C437        C974   1.399       .  A
C437        H976   1.085       .  S
C438        C439   1.417       .  A
C439        C440   1.418       .  A
C439        C446   1.505       .  S
C440        C973   1.411       .  A
C440        H445   1.083       .  S
C441        C442   1.415   1_554  A
C441       C1504   1.407       .  A
C442       C1501   1.401       .  A
C442        C443   1.510   1_455  S
C443        H447   1.110   1_655  S
C443        H448   1.107       .  S
C443        H449   1.111       .  S
H444       C1501   1.085   1_655  S
C446        H450   1.110       .  S
C446        H451   1.110       .  S
C446        H452   1.111       .  S
C453        C454   1.400       .  A
C453        C458   1.396       .  A
C453        H460   1.081       .  S
C454        C455   1.418   1_455  A
C455        C456   1.407       .  A
C455        C462   1.504       .  S
C456        C457   1.400       .  A
C456        H461   1.084       .  S
C457        C458   1.411   1_655  A
C458        C459   1.510       .  S
C459        H463   1.111       .  S
C459        H464   1.111       .  S
C459        H465   1.110       .  S
C462        H466   1.108       .  S
C462        H467   1.110       .  S
C462        H468   1.111       .  S
C469        C470   1.404   1_655  A
C469        C474   1.411       .  A
C469        H476   1.084       .  S
C470        C471   1.417       .  A
C471        C472   1.407       .  A
C471        C478   1.508       .  S
C472        C473   1.402       .  A
C472        H477   1.084       .  S
C473        C474   1.413   1_455  A
C474        C475   1.505       .  S
C475        H479   1.111       .  S
C475        H480   1.109       .  S
C475        H481   1.110       .  S
C478        H482   1.108       .  S
C478        H483   1.109       .  S
C478        H484   1.111       .  S
C485        C486   1.407       .  A
C485        C490   1.405       .  A
C485        H492   1.083       .  S
C486        C487   1.426   1_655  A
C487        C488   1.405       .  A
C487        C494   1.510       .  S
C488        C489   1.401       .  A
C488        H493   1.083       .  S
C489        C490   1.414   1_455  A
C490        C491   1.508       .  S
C491        H495   1.111       .  S
C491        H496   1.108       .  S
C491        H497   1.109       .  S
C494        H498   1.109       .  S
C494        H499   1.110       .  S
C494        H500   1.111       .  S
C501        C502   1.404       .  A
C501        C506   1.407       .  A
C501       H1040   1.083       .  S
C502        C503   1.410   1_455  A
C503        C504   1.397       .  A
C503        C510   1.506       .  S
C504        C505   1.405   1_655  A
C504        H509   1.085       .  S
C505        C506   1.413       .  A
C506        C507   1.505       .  S
C507        H512   1.110       .  S
C507        H513   1.111       .  S
C507       H1043   1.111       .  S
H508       C1565   1.084       .  S
C510        H514   1.110       .  S
C510        H515   1.107       .  S
C510        H516   1.110       .  S
H511       C1571   1.111       .  S
C517        C518   1.412   1_655  A
C517        C522   1.404       .  A
C517        H524   1.083       .  S
C518        C519   1.423       .  A
C519        C520   1.412       .  A
C519        C526   1.507       .  S
C520        C521   1.402       .  A
C520        H525   1.084       .  S
C521        C522   1.409   1_455  A
C522        C523   1.506       .  S
C523        H527   1.111       .  S
C523        H528   1.108       .  S
C523        H529   1.110       .  S
C526        H530   1.110       .  S
C526        H531   1.108       .  S
C526        H532   1.111       .  S
N533       C1069   1.360       .  A
N533        C534   1.359       .  A
N533       C1034   1.438       .  S
C534       C1053   1.491       .  S
C534       C1067   1.383       .  A
C535        C536   1.380       .  A
C535        H538   1.082       .  S
C536        C537   1.384   1_455  A
C536        H539   1.081       .  S
C537       C1021   1.496       .  S
N540        C544   1.361       .  A
N540        C541   1.360       .  A
N540        C986   1.436       .  S
C541       C1002   1.495       .  S
C541        C542   1.383       .  A
C542        C543   1.376       .  A
C542        H545   1.082       .  S
C543        C544   1.383       .  A
C544        C973   1.496       .  S
H546       C1075   1.082       .  S
N547       C1083   1.355       .  A
N547        C548   1.352       .  A
N547        C954   1.435       .  S
C548        C922   1.482       .  S
C548       C1081   1.384       .  A
C549        C550   1.382       .  A
C549        H552   1.082       .  S
C550        C551   1.381       .  A
C550        H553   1.082       .  S
C551        C938   1.483       .  S
N554        C558   1.357       .  A
N554        C555   1.357       .  A
N554        C909   1.437       .  S
C555        C874   1.488       .  S
C555        C556   1.384       .  A
C556        C557   1.380       .  A
C556        H559   1.082       .  S
C557        C558   1.382       .  A
C558        C893   1.490       .  S
H560       C1089   1.082       .  S
N561       C1097   1.357       .  A
N561        C562   1.356       .  A
N561        C858   1.440       .  S
C562        C826   1.484       .  S
C562       C1095   1.384       .  A
C563        C564   1.377       .  A
C563        H566   1.082       .  S
C564        C565   1.381       .  A
C564        H567   1.082       .  S
C565        C842   1.480       .  S
N568        C572   1.358       .  A
N568        C569   1.353       .  A
N568        C810   1.434       .  S
C569        C778   1.483       .  S
C569        C570   1.383       .  A
C570        C571   1.380       .  A
C570        H573   1.082       .  S
C571        C572   1.382       .  A
C572        C794   1.489       .  S
H574       C1103   1.082       .  S
N575        C579   1.356       .  A
N575        C576   1.348       .  A
N575        C749   1.434       .  S
C576        C762   1.475       .  S
C576        C577   1.381       .  A
C577        C578   1.380       .  A
C577        H580   1.082       .  S
C578        C579   1.385       .  A
C579        C733   1.486       .  S
H581       C1110   1.081       .  S
N582       C1118   1.362       .  A
N582        C583   1.359       .  A
N582        C701   1.447       .  S
C583        C714   1.477       .  S
C583       C1116   1.380       .  A
C584        C585   1.380       .  A
C584        H587   1.082       .  S
C585        C586   1.381       .  A
C585        H588   1.082       .  S
C586        C682   1.476       .  S
Zn589       O593   1.958       .  S
Zn589       O594   2.028       .  S
Zn589       O598   2.027       .  S
Zn589       O605   1.991       .  S
Zn590       O593   1.926       .  S
Zn590       O595   2.012       .  S
Zn590       O597   1.985       .  S
Zn590       O601   1.962       .  S
Zn591       O593   1.919       .  S
Zn591       O596   1.962       .  S
Zn591       O599   1.993       .  S
Zn591       O602   1.953       .  S
Zn592       O593   1.992       .  S
Zn592       O600   2.062       .  S
Zn592       O603   2.062       .  S
Zn592       O604   2.054       .  S
O594        C606   1.276       .  A
O595        C607   1.271       .  A
O596        C608   1.269       .  A
O597        C606   1.270       .  A
O598        C608   1.273       .  A
O599        C607   1.268       .  A
O600        C609   1.276       .  A
O601        C610   1.266       .  A
O602        C609   1.265       .  A
O603        C610   1.279       .  A
O604        C611   1.278       .  A
O605        C611   1.272       .  A
C606        C717   1.488       .  S
C607        C845   1.486       .  S
C608        C813   1.479       .  S
C609        C765   1.468       .  S
C610        C861   1.477       .  S
C611        C797   1.494       .  S
Zn612       O616   2.002       .  S
Zn612       O617   2.066       .  S
Zn612       O621   2.063       .  S
Zn612       O628   2.070       .  S
Zn613       O616   1.950   1_545  S
Zn613       O618   2.020       .  S
Zn613       O620   1.980   1_545  S
Zn613       O624   2.029       .  S
Zn614       O616   1.946   1_545  S
Zn614       O619   1.958   1_545  S
Zn614       O622   2.026       .  S
Zn614       O625   2.028       .  S
Zn615       O616   1.925       .  S
Zn615       O623   1.996       .  S
Zn615       O626   1.985       .  S
Zn615       O627   1.981       .  S
O617        C629   1.279       .  A
O618        C630   1.272       .  A
O619        C631   1.267       .  A
O620        C629   1.270       .  A
O621        C631   1.279       .  A
O622        C630   1.275       .  A
O623        C632   1.270   1_565  A
O624        C633   1.274   1_545  A
O625        C632   1.275       .  A
O626        C633   1.271       .  A
O627        C634   1.268       .  A
O628        C634   1.277       .  A
C629        C941   1.489       .  S
C630        C781   1.502       .  S
C631        C906   1.475       .  S
C632        C890   1.490       .  S
C633        C957   1.476       .  S
C634        C829   1.477       .  S
Zn635       O639   1.947       .  S
Zn635       O640   1.954       .  S
Zn635       O644   2.034       .  S
Zn635       O651   2.030       .  S
Zn636       O639   2.013   1_455  S
Zn636       O641   2.090       .  S
Zn636       O643   2.077       .  S
Zn636       O647   2.111   1_565  S
Zn637       O639   1.940   1_455  S
Zn637       O642   2.017   1_455  S
Zn637       O645   1.972       .  S
Zn637       O648   1.985   1_465  S
Zn638       O639   1.952   1_545  S
Zn638       O646   2.018       .  S
Zn638       O649   1.996       .  S
Zn638       O650   2.029       .  S
O640        C652   1.268   1_655  A
O641        C653   1.280       .  A
O642        C654   1.271       .  A
O643        C652   1.282       .  A
O644        C654   1.275       .  A
O645        C653   1.267       .  A
O646        C655   1.273       .  A
O647        C656   1.284       .  A
O648        C655   1.270       .  A
O649        C656   1.272   1_655  A
O650        C657   1.276   1_545  A
O651        C657   1.274       .  A
C652       C1037   1.478       .  S
C653        C877   1.480       .  S
C654       C1018   1.499       .  S
C655        C989   1.463       .  S
C656        C970   1.507       .  S
C657        C925   1.495       .  S
Zn658       O662   1.955       .  S
Zn658       O663   2.031       .  S
Zn658       O667   1.959       .  S
Zn658       O674   2.059       .  S
Zn659       O662   1.925       .  S
Zn659       O664   1.992       .  S
Zn659       O666   1.974       .  S
Zn659       O670   1.987   1_455  S
Zn660       O662   2.015       .  S
Zn660       O665   2.066       .  S
Zn660       O668   2.088       .  S
Zn660       O671   2.079   1_455  S
Zn661       O662   1.931   1_655  S
Zn661       O669   1.929       .  S
Zn661       O672   2.016       .  S
Zn661       O673   2.027       .  S
O663        C675   1.275       .  A
O664        C676   1.268       .  A
O665        C677   1.281       .  A
O666        C675   1.270       .  A
O667        C677   1.268       .  A
O668        C676   1.278       .  A
O669        C678   1.265       .  A
O670        C679   1.270       .  A
O671        C678   1.280       .  A
O672        C679   1.273       .  A
O673        C680   1.274   1_655  A
O674        C680   1.275       .  A
C675        C746   1.469       .  S
C676       C1005   1.485       .  S
C677        C730   1.476       .  S
C678        C698   1.478       .  S
C679        C685   1.483       .  S
C680       C1050   1.511       .  S
C681        C682   1.396       .  A
C681        C686   1.397       .  A
C681        H688   1.084       .  S
C682        C683   1.414       .  A
C683        C684   1.405       .  A
C683        C690   1.507       .  S
C684        C685   1.405       .  A
C684        H689   1.084       .  S
C685        C686   1.422       .  A
C686        C687   1.509       .  S
C687        H691   1.111       .  S
C687        H692   1.108       .  S
C687        H693   1.110       .  S
H694       C1222   1.108       .  S
H695       C1222   1.110       .  S
H696       C1222   1.110       .  S
C697        C698   1.403       .  A
C697        C702   1.410       .  A
C697        H704   1.083       .  S
C698        C699   1.417       .  A
C699        C700   1.389       .  A
C699        C706   1.511       .  S
C700        C701   1.400       .  A
C700        H705   1.079       .  S
C701        C702   1.419       .  A
C702       C1235   1.503       .  S
C703        H707   1.110       .  S
C703        H708   1.104       .  S
C703        H709   1.111       .  S
C706        H710   1.110       .  S
C706        H711   1.111       .  S
C706        H712   1.111       .  S
C713        C714   1.399       .  A
C713        C718   1.399       .  A
C713        H720   1.085       .  S
C714        C715   1.410       .  A
C715        C716   1.404       .  A
C715       C1254   1.507       .  S
C716        C717   1.410       .  A
C716        H721   1.084       .  S
C717        C718   1.421       .  A
C718        C719   1.510       .  S
C719        H723   1.111       .  S
C719        H724   1.109       .  S
C719        H725   1.110       .  S
C722        H726   1.111       .  S
C722        H727   1.106       .  S
C722        H728   1.110       .  S
C729        C730   1.403       .  A
C729        C734   1.408       .  A
C729        H736   1.084       .  S
C730       C1263   1.416       .  A
C731        C732   1.399       .  A
C731        C738   1.509       .  S
C732        C733   1.401       .  A
C732        H737   1.082       .  S
C734       C1265   1.417       .  A
C734        C735   1.507       .  S
C735        H739   1.111       .  S
C735        H740   1.107       .  S
C735        H741   1.108       .  S
C738        H742   1.110       .  S
C738        H743   1.108       .  S
C738        H744   1.111       .  S
C745        C746   1.404       .  A
C745        C750   1.395       .  A
C745        H752   1.085       .  S
C746        C747   1.409       .  A
C747        C748   1.406       .  A
C747        C754   1.504       .  S
C748        C749   1.405       .  A
C748        H753   1.081       .  S
C749        C750   1.404       .  A
C750        C751   1.504       .  S
C751        H755   1.111       .  S
C751        H756   1.105       .  S
C751        H757   1.109       .  S
C754        H758   1.110       .  S
C754        H759   1.110       .  S
C754        H760   1.111       .  S
C761        C762   1.403       .  A
C761        C766   1.406       .  A
C761        H768   1.084       .  S
C762        C763   1.412       .  A
C763        C764   1.401       .  A
C763        C770   1.507       .  S
C764        C765   1.402       .  A
C764        H769   1.085       .  S
C765        C766   1.411       .  A
C766        C767   1.507       .  S
C767        H771   1.111       .  S
C767        H772   1.110       .  S
C767        H773   1.111       .  S
C770        H774   1.110       .  S
C770        H775   1.108       .  S
C770        H776   1.111       .  S
C777        C778   1.398       .  A
C777        C782   1.407       .  A
C777        H784   1.084       .  S
C778        C779   1.409       .  A
C779        C780   1.406       .  A
C779        C786   1.506       .  S
C780        C781   1.412       .  A
C780        H785   1.083       .  S
C781        C782   1.426       .  A
C782        C783   1.509       .  S
C783        H787   1.111       .  S
C783        H788   1.110       .  S
C783        H789   1.110       .  S
C786        H790   1.110       .  S
C786        H791   1.110       .  S
C786        H792   1.111       .  S
C793        C794   1.406       .  A
C793        H800   1.084       .  S
C795       C1326   1.407       .  A
C795        C796   1.402       .  A
C795        C802   1.507       .  S
C796        C797   1.411       .  A
C796        H801   1.084       .  S
C797        C798   1.420       .  A
C798       C1325   1.408       .  A
C798        C799   1.507       .  S
C799       H1335   1.111       .  S
C799        H804   1.110       .  S
C799       H1337   1.110       .  S
C802        H806   1.110       .  S
C802       H1339   1.106       .  S
C802        H808   1.111       .  S
C809        C810   1.404       .  A
C809        C814   1.408       .  A
C809        H816   1.082       .  S
C810        C811   1.406       .  A
C811        C812   1.391       .  A
C811        C818   1.507       .  S
C812        C813   1.407       .  A
C812        H817   1.085       .  S
C813        C814   1.415       .  A
C814        C815   1.506       .  S
C815        H819   1.111       .  S
C815        H820   1.110       .  S
C815        H821   1.110       .  S
C818        H822   1.111       .  S
C818        H823   1.108       .  S
C818        H824   1.110       .  S
C825        C826   1.403       .  A
C825        C830   1.404       .  A
C825        H832   1.084       .  S
C826        C827   1.414       .  A
C827        C828   1.409       .  A
C827        C834   1.506       .  S
C828        C829   1.403       .  A
C828        H833   1.084       .  S
C829        C830   1.411       .  A
C830        C831   1.506       .  S
C831        H835   1.111       .  S
C831        H836   1.110       .  S
C831        H837   1.107       .  S
C834        H838   1.108       .  S
C834        H839   1.110       .  S
C834        H840   1.111       .  S
C841        C842   1.398       .  A
C841        C846   1.401       .  A
C841        H848   1.083       .  S
C842        C843   1.412       .  A
C843        C844   1.404       .  A
C843        C850   1.507       .  S
C844        C845   1.406       .  A
C844        H849   1.084       .  S
C845        C846   1.423       .  A
C846        C847   1.510       .  S
C847        H851   1.111       .  S
C847        H852   1.110       .  S
C847        H853   1.110       .  S
C850        H854   1.108       .  S
C850        H855   1.111       .  S
C850        H856   1.111       .  S
C857        C858   1.400       .  A
C857        C862   1.399       .  A
C857        H864   1.084       .  S
C858        C859   1.413       .  A
C859        C860   1.407       .  A
C859       C1398   1.503       .  S
C860        C861   1.402       .  A
C860        H865   1.084       .  S
C861        C862   1.417       .  A
C862        C863   1.510       .  S
C863        H867   1.111       .  S
C863        H868   1.109       .  S
C863        H869   1.111       .  S
C866        H870   1.105       .  S
C866        H871   1.110       .  S
C866        H872   1.111       .  S
C873        C874   1.402       .  A
C873        C878   1.406       .  A
C873        H880   1.084       .  S
C874        C875   1.415   1_565  A
C875        C876   1.411       .  A
C875        C882   1.506       .  S
C876        C877   1.404   1_545  A
C876        H881   1.084       .  S
C877        C878   1.413       .  A
C878        C879   1.508       .  S
C879        H883   1.111       .  S
C879        H884   1.108       .  S
C879        H885   1.110       .  S
C882        H886   1.110       .  S
C882        H887   1.109       .  S
C882        H888   1.111       .  S
C889        C894   1.408       .  A
C889        H896   1.084       .  S
C890       C1421   1.407       .  A
C890        C891   1.423   1_545  A
C891        C892   1.400       .  A
C891        C898   1.509       .  S
C892       C1425   1.398       .  A
C892        H897   1.082       .  S
C893        C894   1.416   1_565  A
C894        C895   1.507       .  S
C895        H899   1.110       .  S
C895        H900   1.111       .  S
C895        H901   1.107       .  S
C898        H902   1.110       .  S
C898        H903   1.107       .  S
C898        H904   1.111       .  S
C905        C906   1.402       .  A
C905        C910   1.407       .  A
C905        H912   1.084       .  S
C906        C907   1.417   1_565  A
C907        C908   1.397       .  A
C907        C914   1.511       .  S
C908        C909   1.398   1_545  A
C908        H913   1.084       .  S
C909        C910   1.413       .  A
C910        C911   1.503       .  S
C911        H915   1.111       .  S
C911        H916   1.110       .  S
C911        H917   1.104       .  S
C914        H918   1.111       .  S
C914        H919   1.109       .  S
C914        H920   1.111       .  S
C921        C922   1.402       .  A
C921        C926   1.411       .  A
C921       H1460   1.083       .  S
C922        C923   1.410       .  A
C923        C924   1.403       .  A
C923        C930   1.508   1_565  S
C924        C925   1.408       .  A
C924        H929   1.084   1_565  S
C925        C926   1.421       .  A
C926        C927   1.507       .  S
C927        H931   1.111       .  S
C927        H932   1.108       .  S
C927        H933   1.110       .  S
C930        H934   1.109       .  S
C930        H935   1.109       .  S
C930        H936   1.111       .  S
C937        C938   1.405       .  A
C937        C942   1.410       .  A
C937        H944   1.083       .  S
C938        C939   1.411       .  A
C939        C940   1.400       .  A
C939        C946   1.508   1_565  S
C940        C941   1.408       .  A
C940        H945   1.085   1_565  S
C941        C942   1.416       .  A
C942        C943   1.506       .  S
C943        H947   1.111       .  S
C943        H948   1.110       .  S
C943        H949   1.110       .  S
C946        H950   1.108       .  S
C946        H951   1.110       .  S
C946        H952   1.110       .  S
C953        C954   1.403       .  A
C953        C958   1.408   1_565  A
C953        H960   1.082   1_565  S
C954        C955   1.406       .  A
C955        C956   1.396       .  A
C955        C962   1.506       .  S
C956        C957   1.404       .  A
C956        H961   1.085       .  S
C957        C958   1.413   1_565  A
C958        C959   1.505       .  S
C959        H963   1.111       .  S
C959        H964   1.110       .  S
C959        H965   1.109       .  S
C962        H966   1.105       .  S
C962        H967   1.109       .  S
C962        H968   1.111       .  S
C969        C970   1.410       .  A
C969       C1506   1.404       .  A
C969       H1508   1.084   1_455  S
C970        C971   1.419       .  A
C971        C972   1.419       .  A
C971        C978   1.505       .  S
C972       C1505   1.409       .  A
C972        H977   1.084       .  S
C973        C974   1.414       .  A
C974        C975   1.510   1_455  S
C975        H979   1.110   1_655  S
C975        H980   1.106       .  S
C975        H981   1.111       .  S
C978        H982   1.110       .  S
C978        H983   1.110       .  S
C978        H984   1.111       .  S
C985        C986   1.398       .  A
C985        C990   1.396       .  A
C985        H992   1.083       .  S
C986        C987   1.416   1_455  A
C987        C988   1.405       .  A
C987        C994   1.504       .  S
C988        C989   1.399       .  A
C988        H993   1.084       .  S
C989        C990   1.413   1_655  A
C990        C991   1.510       .  S
C991        H995   1.111       .  S
C991        H996   1.111       .  S
C991        H997   1.110       .  S
C994        H998   1.108       .  S
C994        H999   1.110       .  S
C994       H1000   1.110       .  S
C1001      C1002   1.405   1_655  A
C1001      C1006   1.413       .  A
C1001      H1008   1.084       .  S
C1002      C1003   1.417       .  A
C1003      C1004   1.408       .  A
C1003      C1010   1.508       .  S
C1004      C1005   1.402       .  A
C1004      H1009   1.084       .  S
C1005      C1006   1.415   1_455  A
C1006      C1007   1.504       .  S
C1007      H1011   1.111       .  S
C1007      H1012   1.107       .  S
C1007      H1013   1.110       .  S
C1010      H1014   1.108       .  S
C1010      H1015   1.110       .  S
C1010      H1016   1.111       .  S
C1017      C1018   1.408       .  A
C1017      C1022   1.408       .  A
C1017      H1024   1.084       .  S
C1018      C1019   1.424   1_655  A
C1019      C1020   1.405       .  A
C1019      C1026   1.509       .  S
C1020      C1021   1.401   1_455  A
C1020      H1025   1.082       .  S
C1021      C1022   1.416       .  A
C1022      C1023   1.508       .  S
C1023      H1027   1.111       .  S
C1023      H1028   1.107       .  S
C1023      H1029   1.109       .  S
C1026      H1030   1.108       .  S
C1026      H1031   1.110       .  S
C1026      H1032   1.111       .  S
C1033      C1034   1.406       .  A
C1033      C1038   1.410       .  A
C1033      H1572   1.084       .  S
C1034      C1035   1.410   1_455  A
C1035      C1036   1.395       .  A
C1035      C1042   1.505       .  S
C1036      C1037   1.404   1_655  A
C1036      H1041   1.085       .  S
C1037      C1038   1.412       .  A
C1038      C1039   1.505       .  S
C1039      H1575   1.111       .  S
C1039      H1044   1.110       .  S
C1039      H1045   1.110       .  S
C1042      H1046   1.110       .  S
C1042      H1047   1.106       .  S
C1042      H1048   1.110       .  S
C1049      C1050   1.412   1_655  A
C1049      C1054   1.407       .  A
C1049      H1056   1.083       .  S
C1050      C1051   1.425       .  A
C1051      C1052   1.414       .  A
C1051      C1058   1.506       .  S
C1052      C1053   1.402       .  A
C1052      H1057   1.084       .  S
C1053      C1054   1.411   1_455  A
C1054      C1055   1.506       .  S
C1055      H1059   1.111       .  S
C1055      H1060   1.107       .  S
C1055      H1061   1.110       .  S
C1058      H1062   1.110       .  S
C1058      H1063   1.107       .  S
C1058      H1064   1.111       .  S
N1065      C1066   1.355       .  A
N1065      C1566   1.437   1_554  S
C1066      C1585   1.485   1_554  S
C1067      C1068   1.379       .  A
C1067      H1070   1.082       .  S
C1068      C1069   1.383       .  A
C1068      H1071   1.081       .  S
C1069      C1553   1.497   1_455  S
N1072      C1076   1.362       .  A
N1072      C1073   1.362       .  A
N1072      C1518   1.436       .  S
C1073      C1534   1.498       .  S
C1073      C1074   1.383       .  A
C1074      C1075   1.378       .  A
C1074      H1077   1.082       .  S
C1075      C1076   1.383       .  A
C1076      C1505   1.500       .  S
N1079      C1080   1.352       .  A
N1079      C1486   1.434   1_554  S
C1080      C1454   1.483   1_554  S
C1081      C1082   1.381       .  A
C1081      H1084   1.082       .  S
C1082      C1083   1.380       .  A
C1082      H1085   1.082       .  S
C1083      C1470   1.482       .  S
N1086      C1090   1.354       .  A
N1086      C1087   1.354       .  A
N1086      C1441   1.436       .  S
C1087      C1406   1.482       .  S
C1087      C1088   1.384       .  A
C1088      C1089   1.381       .  A
C1088      H1091   1.082       .  S
C1089      C1090   1.382       .  A
C1090      C1425   1.485       .  S
N1093      C1094   1.356   1_554  A
N1093      C1390   1.439   1_554  S
C1094      C1358   1.485       .  S
C1095      C1096   1.377       .  A
C1095      H1098   1.082       .  S
C1096      C1097   1.381       .  A
C1096      H1099   1.082       .  S
C1097      C1374   1.484       .  S
N1100      C1104   1.353       .  A
N1100      C1101   1.353       .  A
N1100      C1342   1.434       .  S
C1101      C1310   1.484       .  S
C1101      C1102   1.385       .  A
C1102      C1103   1.380       .  A
C1102      H1105   1.082       .  S
C1103      C1104   1.380       .  A
C1104      C1326   1.481       .  S
N1107      C1111   1.355       .  A
N1107      C1108   1.347       .  A
N1107      C1281   1.435       .  S
C1108      C1294   1.475       .  S
C1108      C1109   1.382       .  A
C1109      C1110   1.382       .  A
C1109      H1112   1.082       .  S
C1110      C1111   1.384       .  A
C1111      C1265   1.485       .  S
N1114      C1115   1.353       .  A
N1114      C1233   1.438   1_554  S
C1115      C1246   1.478   1_554  S
C1116      C1117   1.370       .  A
C1116      H1119   1.082       .  S
C1117      C1118   1.383       .  A
C1117      H1120   1.082       .  S
C1118      C1214   1.481       .  S
Zn1121     O1125   1.941       .  S
Zn1121     O1126   2.001       .  S
Zn1121     O1130   2.018       .  S
Zn1121     O1137   1.977       .  S
Zn1122     O1125   1.946       .  S
Zn1122     O1127   2.028       .  S
Zn1122     O1129   2.033       .  S
Zn1122     O1133   1.968       .  S
Zn1123     O1125   1.922       .  S
Zn1123     O1128   1.986       .  S
Zn1123     O1131   1.989       .  S
Zn1123     O1134   1.961       .  S
Zn1124     O1125   1.997       .  S
Zn1124     O1132   2.062       .  S
Zn1124     O1135   2.056       .  S
Zn1124     O1136   2.051       .  S
O1126      C1138   1.274       .  A
O1127      C1139   1.275       .  A
O1128      C1140   1.271       .  A
O1129      C1138   1.275       .  A
O1130      C1140   1.271       .  A
O1131      C1139   1.269       .  A
O1132      C1141   1.276       .  A
O1133      C1142   1.267       .  A
O1134      C1141   1.266       .  A
O1135      C1142   1.279       .  A
O1136      C1143   1.277       .  A
O1137      C1143   1.270       .  A
C1138      C1249   1.493       .  S
C1139      C1377   1.489       .  S
C1140      C1345   1.476       .  S
C1141      C1297   1.472       .  S
C1142      C1393   1.478       .  S
C1143      C1329   1.485       .  S
Zn1144     O1148   1.999       .  S
Zn1144     O1149   2.060       .  S
Zn1144     O1153   2.060       .  S
Zn1144     O1160   2.068       .  S
Zn1145     O1148   1.944   1_545  S
Zn1145     O1150   2.013       .  S
Zn1145     O1152   1.976   1_545  S
Zn1145     O1156   2.014       .  S
Zn1146     O1148   1.945   1_545  S
Zn1146     O1151   1.953   1_545  S
Zn1146     O1154   2.032       .  S
Zn1146     O1157   2.025       .  S
Zn1147     O1148   1.926       .  S
Zn1147     O1155   2.009       .  S
Zn1147     O1158   1.989       .  S
Zn1147     O1159   1.976       .  S
O1149      C1161   1.278       .  A
O1150      C1162   1.271       .  A
O1151      C1163   1.266       .  A
O1152      C1161   1.270       .  A
O1153      C1163   1.280       .  A
O1154      C1162   1.276       .  A
O1155      C1164   1.271       .  A
O1156      C1165   1.273   1_545  A
O1157      C1164   1.275   1_545  A
O1158      C1165   1.272       .  A
O1159      C1166   1.268       .  A
O1160      C1166   1.276       .  A
C1161      C1473   1.484       .  S
C1162      C1313   1.498       .  S
C1163      C1438   1.473       .  S
C1164      C1422   1.494       .  S
C1165      C1489   1.471       .  S
C1166      C1361   1.474       .  S
Zn1167     O1171   1.945       .  S
Zn1167     O1172   1.969       .  S
Zn1167     O1176   2.035       .  S
Zn1167     O1183   2.027       .  S
Zn1168     O1171   2.003   1_455  S
Zn1168     O1173   2.070       .  S
Zn1168     O1175   2.052       .  S
Zn1168     O1179   2.080   1_565  S
Zn1169     O1171   1.940   1_455  S
Zn1169     O1174   2.014   1_455  S
Zn1169     O1177   1.966       .  S
Zn1169     O1180   1.994   1_465  S
Zn1170     O1171   1.950   1_545  S
Zn1170     O1178   2.024       .  S
Zn1170     O1181   2.000       .  S
Zn1170     O1182   2.027       .  S
O1172      C1184   1.269   1_655  A
O1173      C1185   1.277       .  A
O1174      C1186   1.271       .  A
O1175      C1184   1.278       .  A
O1176      C1186   1.275       .  A
O1177      C1185   1.267       .  A
O1178      C1187   1.274       .  A
O1179      C1188   1.280       .  A
O1180      C1187   1.271       .  A
O1181      C1188   1.272   1_655  A
O1182      C1189   1.277   1_545  A
O1183      C1189   1.274       .  A
C1184      C1569   1.476       .  S
C1185      C1409   1.472       .  S
C1186      C1550   1.499       .  S
C1187      C1521   1.467       .  S
C1188      C1502   1.499       .  S
C1189      C1457   1.500       .  S
Zn1190     O1194   1.963       .  S
Zn1190     O1195   2.018       .  S
Zn1190     O1199   1.981       .  S
Zn1190     O1206   2.041       .  S
Zn1191     O1194   1.947       .  S
Zn1191     O1196   2.001       .  S
Zn1191     O1198   1.985       .  S
Zn1191     O1202   2.030   1_455  S
Zn1192     O1194   2.003       .  S
Zn1192     O1197   2.085       .  S
Zn1192     O1200   2.099       .  S
Zn1192     O1203   2.083   1_455  S
Zn1193     O1194   1.926   1_655  S
Zn1193     O1201   1.943       .  S
Zn1193     O1204   1.988       .  S
Zn1193     O1205   2.004   1_655  S
O1195      C1207   1.274       .  A
O1196      C1208   1.270       .  A
O1197      C1209   1.281       .  A
O1198      C1207   1.272       .  A
O1199      C1209   1.269       .  A
O1200      C1208   1.282       .  A
O1201      C1210   1.264       .  A
O1202      C1211   1.273       .  A
O1203      C1210   1.282       .  A
O1204      C1211   1.270       .  A
O1205      C1212   1.271       .  A
O1206      C1212   1.273       .  A
C1207      C1278   1.466       .  S
C1208      C1537   1.490       .  S
C1209      C1262   1.481       .  S
C1210      C1230   1.479       .  S
C1211      C1217   1.476       .  S
C1212      C1582   1.503       .  S
C1213      C1214   1.400       .  A
C1213      C1218   1.395       .  A
C1213      H1220   1.085       .  S
C1214      C1215   1.417       .  A
C1215      C1216   1.409       .  A
C1215      C1222   1.506       .  S
C1216      C1217   1.405       .  A
C1216      H1221   1.084       .  S
C1217      C1218   1.416       .  A
C1218      C1219   1.511       .  S
C1219      H1223   1.111       .  S
C1219      H1224   1.110       .  S
C1219      H1225   1.110       .  S
C1229      C1230   1.402       .  A
C1229      C1234   1.407       .  A
C1229      H1236   1.084       .  S
C1230      C1231   1.421       .  A
C1231      C1232   1.397       .  A
C1231      C1238   1.512       .  S
C1232      C1233   1.396       .  A
C1232      H1237   1.084       .  S
C1233      C1234   1.416       .  A
C1235      H1239   1.110       .  S
C1235      H1240   1.109       .  S
C1235      H1241   1.110       .  S
C1238      H1242   1.109       .  S
C1238      H1243   1.111       .  S
C1238      H1244   1.111       .  S
C1245      C1246   1.404       .  A
C1245      C1250   1.411       .  A
C1245      H1252   1.084       .  S
C1246      C1247   1.410       .  A
C1247      C1248   1.397       .  A
C1248      C1249   1.408       .  A
C1248      H1253   1.084       .  S
C1249      C1250   1.420       .  A
C1250      C1251   1.507       .  S
C1251      H1255   1.111       .  S
C1251      H1256   1.109       .  S
C1251      H1257   1.110       .  S
C1254      H1258   1.110       .  S
C1254      H1259   1.107       .  S
C1254      H1260   1.110       .  S
C1261      C1262   1.401       .  A
C1261      C1266   1.410       .  A
C1261      H1268   1.084       .  S
C1263      C1264   1.396       .  A
C1263      C1270   1.510       .  S
C1264      C1265   1.399       .  A
C1264      H1269   1.082       .  S
C1266      C1267   1.508       .  S
C1267      H1271   1.111       .  S
C1267      H1272   1.109       .  S
C1267      H1273   1.107       .  S
C1270      H1274   1.110       .  S
C1270      H1275   1.107       .  S
C1270      H1276   1.111       .  S
C1277      C1278   1.402       .  A
C1277      C1282   1.393       .  A
C1277      H1284   1.085       .  S
C1278      C1279   1.409       .  A
C1279      C1280   1.407       .  A
C1279      C1286   1.504       .  S
C1280      C1281   1.406       .  A
C1280      H1285   1.082       .  S
C1281      C1282   1.405       .  A
C1282      C1283   1.504       .  S
C1283      H1287   1.111       .  S
C1283      H1288   1.104       .  S
C1283      H1289   1.110       .  S
C1286      H1290   1.110       .  S
C1286      H1291   1.111       .  S
C1286      H1292   1.111       .  S
C1293      C1294   1.403       .  A
C1293      C1298   1.407       .  A
C1293      H1300   1.084       .  S
C1294      C1295   1.412       .  A
C1295      C1296   1.400       .  A
C1295      C1302   1.508       .  S
C1296      C1297   1.403       .  A
C1296      H1301   1.085       .  S
C1297      C1298   1.412       .  A
C1298      C1299   1.507       .  S
C1299      H1303   1.111       .  S
C1299      H1304   1.110       .  S
C1299      H1305   1.111       .  S
C1302      H1306   1.110       .  S
C1302      H1307   1.108       .  S
C1302      H1308   1.111       .  S
C1309      C1310   1.400       .  A
C1309      C1314   1.409       .  A
C1309      H1316   1.083       .  S
C1310      C1311   1.411       .  A
C1311      C1312   1.404       .  A
C1311      C1318   1.507       .  S
C1312      C1313   1.409       .  A
C1312      H1317   1.083       .  S
C1313      C1314   1.424       .  A
C1314      C1315   1.508       .  S
C1315      H1319   1.111       .  S
C1315      H1320   1.109       .  S
C1315      H1321   1.110       .  S
C1318      H1322   1.109       .  S
C1318      H1323   1.109       .  S
C1318      H1324   1.111       .  S
C1325      C1326   1.401       .  A
C1325      H1332   1.083       .  S
C1327      C1328   1.401       .  A
C1327      C1334   1.507       .  S
C1328      C1329   1.408       .  A
C1328      H1333   1.084       .  S
C1329      C1330   1.416       .  A
C1330      C1331   1.507       .  S
C1331      H1336   1.111       .  S
C1334      H1338   1.110       .  S
C1334      H1340   1.111       .  S
C1341      C1342   1.403       .  A
C1341      C1346   1.407       .  A
C1341      H1348   1.082       .  S
C1342      C1343   1.408       .  A
C1343      C1344   1.395       .  A
C1343      C1350   1.505       .  S
C1344      C1345   1.405       .  A
C1344      H1349   1.085       .  S
C1345      C1346   1.413       .  A
C1346      C1347   1.505       .  S
C1347      H1351   1.111       .  S
C1347      H1352   1.109       .  S
C1347      H1353   1.110       .  S
C1350      H1354   1.110       .  S
C1350      H1355   1.108       .  S
C1350      H1356   1.110       .  S
C1357      C1358   1.404       .  A
C1357      C1362   1.405       .  A
C1357      H1364   1.084       .  S
C1358      C1359   1.414       .  A
C1359      C1360   1.408       .  A
C1359      C1366   1.506       .  S
C1360      C1361   1.403       .  A
C1360      H1365   1.084       .  S
C1361      C1362   1.410       .  A
C1362      C1363   1.506       .  S
C1363      H1367   1.111       .  S
C1363      H1368   1.110       .  S
C1363      H1369   1.107       .  S
C1366      H1370   1.107       .  S
C1366      H1371   1.110       .  S
C1366      H1372   1.111       .  S
C1373      C1374   1.398       .  A
C1373      C1378   1.400       .  A
C1373      H1380   1.083       .  S
C1374      C1375   1.413       .  A
C1375      C1376   1.406       .  A
C1375      C1382   1.507       .  S
C1376      C1377   1.407       .  A
C1376      H1381   1.084       .  S
C1377      C1378   1.424       .  A
C1378      C1379   1.511       .  S
C1379      H1383   1.111       .  S
C1379      H1384   1.110       .  S
C1379      H1385   1.110       .  S
C1382      H1386   1.108       .  S
C1382      H1387   1.110       .  S
C1382      H1388   1.111       .  S
C1389      C1390   1.398       .  A
C1389      C1394   1.399       .  A
C1389      H1396   1.084       .  S
C1390      C1391   1.414       .  A
C1391      C1392   1.406       .  A
C1392      C1393   1.402       .  A
C1392      H1397   1.084       .  S
C1393      C1394   1.418       .  A
C1394      C1395   1.510       .  S
C1395      H1399   1.111       .  S
C1395      H1400   1.109       .  S
C1395      H1401   1.111       .  S
C1398      H1402   1.106       .  S
C1398      H1403   1.110       .  S
C1398      H1404   1.111       .  S
C1405      C1406   1.402       .  A
C1405      C1410   1.404       .  A
C1405      H1412   1.083       .  S
C1406      C1407   1.414   1_565  A
C1407      C1408   1.407       .  A
C1407      C1414   1.506       .  S
C1408      C1409   1.402   1_545  A
C1408      H1413   1.084       .  S
C1409      C1410   1.412       .  A
C1410      C1411   1.508       .  S
C1411      H1415   1.111       .  S
C1411      H1416   1.108       .  S
C1411      H1417   1.110       .  S
C1414      H1418   1.110       .  S
C1414      H1419   1.107       .  S
C1414      H1420   1.111       .  S
C1421      C1426   1.406       .  A
C1421      H1428   1.084       .  S
C1422      C1423   1.423       .  A
C1423      C1424   1.403   1_556  A
C1423      C1430   1.508       .  S
C1424      H1429   1.083       .  S
C1425      C1426   1.415   1_565  A
C1426      C1427   1.507       .  S
C1427      H1431   1.110       .  S
C1427      H1432   1.111       .  S
C1427      H1433   1.107       .  S
C1430      H1434   1.110   1_556  S
C1430      H1435   1.106       .  S
C1430      H1436   1.111   1_556  S
C1437      C1438   1.401       .  A
C1437      C1442   1.405       .  A
C1437      H1444   1.084       .  S
C1438      C1439   1.418   1_565  A
C1439      C1440   1.397       .  A
C1439      C1446   1.511       .  S
C1440      C1441   1.398   1_545  A
C1440      H1445   1.084       .  S
C1441      C1442   1.413       .  A
C1442      C1443   1.503       .  S
C1443      H1447   1.111       .  S
C1443      H1448   1.110       .  S
C1443      H1449   1.104       .  S
C1446      H1450   1.110       .  S
C1446      H1451   1.108       .  S
C1446      H1452   1.111       .  S
C1453      C1454   1.401       .  A
C1453      C1458   1.409       .  A
C1454      C1455   1.409   1_565  A
C1455      C1456   1.404       .  A
C1455      C1462   1.508       .  S
C1456      C1457   1.410   1_545  A
C1456      H1461   1.083       .  S
C1457      C1458   1.423       .  A
C1458      C1459   1.508       .  S
C1459      H1463   1.111       .  S
C1459      H1464   1.109       .  S
C1459      H1465   1.110       .  S
C1462      H1466   1.110   1_556  S
C1462      H1467   1.108       .  S
C1462      H1468   1.111       .  S
C1469      C1470   1.405       .  A
C1469      C1474   1.409       .  A
C1469      H1476   1.084       .  S
C1470      C1471   1.412       .  A
C1471      C1472   1.399       .  A
C1471      C1478   1.508   1_565  S
C1472      C1473   1.406       .  A
C1472      H1477   1.085   1_565  S
C1473      C1474   1.415       .  A
C1474      C1475   1.506       .  S
C1475      H1479   1.111       .  S
C1475      H1480   1.110       .  S
C1475      H1481   1.111       .  S
C1478      H1482   1.107       .  S
C1478      H1483   1.111       .  S
C1478      H1484   1.110       .  S
C1485      C1486   1.403   1_545  A
C1485      C1490   1.405       .  A
C1485      H1492   1.080       .  S
C1486      C1487   1.406       .  A
C1487      C1488   1.396       .  A
C1487      C1494   1.506       .  S
C1488      C1489   1.404       .  A
C1488      H1493   1.085       .  S
C1489      C1490   1.411   1_565  A
C1490      C1491   1.506       .  S
C1491      H1495   1.111       .  S
C1491      H1496   1.111       .  S
C1491      H1497   1.109       .  S
C1494      H1498   1.106   1_556  S
C1494      H1499   1.108       .  S
C1494      H1500   1.111       .  S
C1501      C1502   1.407       .  A
C1502      C1503   1.419       .  A
C1503      C1504   1.415   1_556  A
C1503      C1510   1.505   1_556  S
C1504      H1509   1.084       .  S
C1505      C1506   1.415       .  A
C1506      C1507   1.510   1_455  S
C1507      H1511   1.110       .  S
C1507      H1512   1.107       .  S
C1507      H1513   1.111       .  S
C1510      H1514   1.110   1_554  S
C1510      H1515   1.111       .  S
C1510      H1516   1.111       .  S
C1517      C1518   1.397       .  A
C1517      C1522   1.397       .  A
C1517      H1524   1.082       .  S
C1518      C1519   1.416   1_455  A
C1519      C1520   1.406       .  A
C1519      C1526   1.504       .  S
C1520      C1521   1.400       .  A
C1520      H1525   1.084       .  S
C1521      C1522   1.413   1_655  A
C1522      C1523   1.510       .  S
C1523      H1527   1.111       .  S
C1523      H1528   1.111       .  S
C1523      H1529   1.110       .  S
C1526      H1530   1.109       .  S
C1526      H1531   1.110       .  S
C1526      H1532   1.110       .  S
C1533      C1534   1.405   1_655  A
C1533      C1538   1.414       .  A
C1533      H1540   1.084       .  S
C1534      C1535   1.418       .  A
C1535      C1536   1.411       .  A
C1535      C1542   1.508       .  S
C1536      C1537   1.403       .  A
C1536      H1541   1.084       .  S
C1537      C1538   1.415   1_455  A
C1538      C1539   1.505       .  S
C1539      H1543   1.111       .  S
C1539      H1544   1.110       .  S
C1539      H1545   1.110       .  S
C1542      H1546   1.109       .  S
C1542      H1547   1.109       .  S
C1542      H1548   1.111       .  S
C1549      C1550   1.407       .  A
C1549      C1554   1.408       .  A
C1549      H1556   1.084       .  S
C1550      C1551   1.425   1_655  A
C1551      C1552   1.407       .  A
C1551      C1558   1.510       .  S
C1552      C1553   1.402   1_455  A
C1552      H1557   1.082       .  S
C1553      C1554   1.417       .  A
C1554      C1555   1.508       .  S
C1555      H1559   1.111       .  S
C1555      H1560   1.107       .  S
C1555      H1561   1.109       .  S
C1558      H1562   1.107       .  S
C1558      H1563   1.110       .  S
C1558      H1564   1.111       .  S
C1565      C1566   1.404       .  A
C1565      C1570   1.406       .  A
C1566      C1567   1.411   1_455  A
C1567      C1568   1.397       .  A
C1567      C1574   1.505   1_556  S
C1568      C1569   1.404   1_655  A
C1568      H1573   1.085       .  S
C1569      C1570   1.413       .  A
C1570      C1571   1.506       .  S
C1571      H1576   1.110       .  S
C1571      H1577   1.111       .  S
C1574      H1578   1.110       .  S
C1574      H1579   1.107       .  S
C1574      H1580   1.110   1_554  S
C1581      C1582   1.411   1_655  A
C1581      C1586   1.404       .  A
C1581      H1588   1.083       .  S
C1582      C1583   1.424       .  A
C1583      C1584   1.410       .  A
C1583      C1590   1.507       .  S
C1584      C1585   1.401       .  A
C1584      H1589   1.084       .  S
C1585      C1586   1.410   1_455  A
C1586      C1587   1.505       .  S
C1587      H1591   1.111       .  S
C1587      H1592   1.107       .  S
C1587      H1593   1.110       .  S
C1590      H1594   1.110       .  S
C1590      H1595   1.109       .  S
C1590      H1596   1.111       .  S
