geometry optimzed in LAMMPS
_audit_creation_date              2020-12-01 
_audit_creation_method            'lammps2cif' 
_symmetry_space_group_name_H-M    'P1' 
_symmetry_Int_Tables_number       1 
_symmetry_cell_setting            triclinic 
loop_ 
_symmetry_equiv_pos_as_xyz 
  x,y,z 
_cell_length_a                    25.77662274 
_cell_length_b                    26.66713143482271 
_cell_length_c                    25.592447402031734 
_cell_angle_alpha                 89.88113703079277 
_cell_angle_beta                  89.32857117061107 
_cell_angle_gamma                 89.1205198038114 
loop_ 
_atom_site_label 
_atom_site_type_symbol 
_atom_site_fract_x 
_atom_site_fract_y 
_atom_site_fract_z 
_atom_site_charge 
C1          C  0.79773221  0.74970030  0.76197296     0.81300
N2          N  0.77032053  0.73232343  0.80403057    -0.77000
C3          C  0.73014680  0.75983658  0.82454977     0.83800
N4          N  0.71661522  0.80445715  0.80213445    -0.76900
C5          C  0.74370982  0.82223554  0.76037243     0.83900
N6          N  0.78414921  0.79454719  0.74021412    -0.78700
C7          C  0.16130951  0.78003473  0.23855364     0.81300
N8          N  0.16737833  0.74059981  0.20541653    -0.77000
C9          C  0.20666472  0.73961063  0.16930099     0.83800
N10         N  0.24182075  0.77701702  0.16856371    -0.76900
C11         C  0.23658861  0.81677830  0.20172222     0.83900
N12         N  0.19657704  0.81780998  0.23697746    -0.78700
C13         C  0.83093797  0.20574431  0.74367915     0.81300
N14         N  0.79911738  0.16588185  0.74109256    -0.77000
C15         C  0.75972601  0.15977479  0.77582131     0.83800
N16         N  0.75081417  0.19572954  0.81320834    -0.76900
C17         C  0.78276080  0.23606717  0.81677646     0.83900
N18         N  0.82191016  0.24141668  0.78084155    -0.78700
C19         C  0.16272669  0.19694134  0.72213827     0.81300
N20         N  0.16917432  0.23502295  0.75666757    -0.77000
C21         C  0.20464495  0.23036908  0.79559327     0.83800
N22         N  0.23520146  0.18854959  0.79772446    -0.76900
C23         C  0.22959324  0.15053039  0.76280448     0.83900
N24         N  0.19376841  0.15531358  0.72479812    -0.78700
C25         C  0.19843287  0.73184481  0.82639101     0.81300
N26         N  0.23185763  0.77015115  0.81700353    -0.77000
C27         C  0.22158546  0.80470297  0.77853566     0.83800
N28         N  0.17939515  0.79839422  0.74757364    -0.76900
C29         C  0.14631599  0.75970732  0.75649824     0.83900
N30         N  0.15676094  0.72666544  0.79521064    -0.78700
C31         C  0.79410593  0.24701308  0.17012676     0.81300
N32         N  0.83313581  0.24321962  0.20579037    -0.77000
C33         C  0.83433114  0.20454939  0.24082635     0.83800
N34         N  0.79484421  0.17146992  0.24197002    -0.76900
C35         C  0.75580006  0.17500379  0.20723856     0.83900
N36         N  0.75507351  0.21337613  0.17191770    -0.78700
O37         O  0.55339862  0.54725465  0.17194248    -0.71900
O38         O  0.45256834  0.43355674  0.15887333    -0.72800
O39         O  0.44334162  0.54031732  0.16718374    -0.61500
O40         O  0.56181961  0.43960634  0.16410090    -0.69900
O41         O  0.55834385  0.43542533  0.25065823    -0.69400
O42         O  0.43708734  0.53537999  0.25346563    -0.60700
O43         O  0.44703113  0.42815763  0.24528170    -0.73200
O44         O  0.54987325  0.54313235  0.25841948    -0.72000
Cu45       Cu  0.50298095  0.49040540  0.16268185     1.04600
Cu46       Cu  0.49797927  0.48523842  0.25504477     1.04300
C47         C  0.56760271  0.56341372  0.21654692     0.94300
C48         C  0.43374672  0.41307521  0.19992964     0.93500
C49         C  0.42108976  0.55355711  0.21010752     0.85600
C50         C  0.57878052  0.42161297  0.20707321     0.91900
N51         N  0.24497061  0.26010515  0.10996154    -0.02400
C52         C  0.23156746  0.25945091  0.05826064     0.00200
C53         C  0.25854970  0.29547189  0.03064683    -0.22700
C54         C  0.28855093  0.31992951  0.06522500    -0.22900
C55         C  0.27968309  0.29827153  0.11334632     0.00100
H56         H  0.25788497  0.30202496  0.98902163     0.13900
H57         H  0.31539174  0.34963233  0.05613049     0.13900
N58         N  0.21344054  0.69590012  0.13703544    -0.02400
C59         C  0.18762752  0.68481386  0.09243825     0.00200
C60         C  0.19744689  0.63531524  0.07879860    -0.22700
C61         C  0.23132385  0.61591203  0.11429267    -0.22900
C62         C  0.24150696  0.65377770  0.14903957     0.00100
H63         H  0.18390188  0.61608652  0.04463755     0.13900
H64         H  0.24998925  0.57930074  0.11250019     0.13900
N65         N  0.79122589  0.29051376  0.13645987    -0.02400
C66         C  0.81207147  0.29671671  0.08752359     0.00200
C67         C  0.80755100  0.34664222  0.07303597    -0.22700
C68         C  0.78102545  0.37116524  0.11201818    -0.22900
C69         C  0.77034908  0.33611830  0.15019763     0.00100
H70         H  0.81883033  0.36298179  0.03603210     0.13900
H71         H  0.76575199  0.40913606  0.10972131     0.13900
N72         N  0.74491671  0.73022327  0.13346510    -0.02400
C73         C  0.76103907  0.72698209  0.08236027     0.00200
C74         C  0.74190991  0.68357990  0.06024975    -0.21900
C75         C  0.71281958  0.66020444  0.09738522    -0.22900
C76         C  0.71427911  0.68947204  0.14156925     0.00100
H77         H  0.74602908  0.67143632  0.02008304     0.13900
H78         H  0.69034552  0.62668306  0.09194755     0.13900
O79         O  0.53897555  0.52576108  0.82033075    -0.71900
O80         O  0.42979901  0.42013730  0.80693766    -0.72800
O81         O  0.53868979  0.41886558  0.81274862    -0.61500
O82         O  0.42860384  0.52742486  0.81349310    -0.69900
O83         O  0.42949961  0.53289937  0.72705793    -0.69400
O84         O  0.54646429  0.42753323  0.72680093    -0.60700
O85         O  0.43462937  0.42542776  0.72046846    -0.73200
O86         O  0.54107301  0.53591755  0.73428915    -0.72000
Cu87       Cu  0.48381649  0.47279871  0.81616167     1.04600
Cu88       Cu  0.48829131  0.48040725  0.72395520     1.04300
C89         C  0.55636037  0.54840100  0.77985171     0.94300
C90         C  0.41497036  0.40612326  0.76191633     0.93500
C91         C  0.56046250  0.40644623  0.76956101     0.85600
C92         C  0.41133086  0.54730031  0.77137580     0.91900
N93         N  0.21099789  0.27119516  0.83172000    -0.02400
C94         C  0.19405539  0.27459578  0.88241453     0.00200
C95         C  0.20016817  0.32328464  0.89992641    -0.22700
C96         C  0.22359593  0.34962759  0.86073875    -0.22900
C97         C  0.23091415  0.31704146  0.81947054     0.00100
H98         H  0.19176074  0.33748812  0.93872580     0.13900
H99         H  0.23916134  0.38691163  0.86436944     0.13900
N100        N  0.21074762  0.69073218  0.86093276    -0.02400
C101        C  0.18476632  0.67746000  0.90563986     0.00200
C102        C  0.20002866  0.62965529  0.92071107    -0.22700
C103        C  0.23612798  0.61300326  0.88524068    -0.22900
C104        C  0.24247925  0.65092530  0.84925591     0.00100
H105        H  0.18940421  0.61027849  0.95618188     0.13900
H106        H  0.25817953  0.57819648  0.88735316     0.13900
N107        N  0.77142398  0.27683203  0.85265427    -0.02400
C108        C  0.79287092  0.28580015  0.90048237     0.00200
C109        C  0.77471437  0.33115975  0.91997388    -0.22700
C110        C  0.74104367  0.35071820  0.88457685    -0.22900
C111        C  0.73953433  0.31738014  0.84358703     0.00100
H112        H  0.78208933  0.34662925  0.95802284     0.13900
H113        H  0.71760445  0.38445462  0.88955270     0.13900
N114        N  0.70011767  0.74179142  0.86823740    -0.02400
C115        C  0.70593353  0.75344335  0.91962720     0.00200
C116        C  0.66582868  0.73345833  0.94899797    -0.22700
C117        C  0.63495004  0.70812826  0.91532484    -0.22900
C118        C  0.65684459  0.71310010  0.86614929     0.00100
H119        H  0.66124436  0.73475808  0.99108806     0.13900
H120        H  0.60224006  0.68516904  0.92610270     0.13900
O121        O  0.55310528  0.26416712  0.44037683    -0.71900
O122        O  0.43978182  0.25285751  0.55404288    -0.72800
O123        O  0.55212480  0.25776011  0.55453124    -0.61500
O124        O  0.44133798  0.25908217  0.44028654    -0.69900
O125        O  0.44717502  0.17604153  0.43805004    -0.69400
O126        O  0.55735236  0.17494635  0.54786078    -0.60700
O127        O  0.44792805  0.17024616  0.54747113    -0.73200
O128        O  0.55579934  0.18108746  0.43868371    -0.72000
Cu129      Cu  0.49646324  0.26174533  0.49758170     1.04600
Cu130      Cu  0.50227530  0.17313544  0.49294146     1.04300
C131        C  0.57184887  0.22310922  0.42164816     0.94300
C132        C  0.42583829  0.20874743  0.56773312     0.93500
C133        C  0.57217206  0.21564631  0.56878905     0.85600
C134        C  0.42703786  0.21705088  0.42144181     0.91900
N135        N  0.26931313  0.12263194  0.23543657    -0.02400
C136        C  0.27000934  0.07182855  0.22552495     0.00200
C137        C  0.30868842  0.04823784  0.25385925    -0.22700
C138        C  0.33164328  0.08374150  0.28321595    -0.22900
C139        C  0.30660271  0.12857024  0.27270633     0.00100
H140        H  0.31738828  0.00846414  0.25517771     0.13900
H141        H  0.36189352  0.07724658  0.31155660     0.13900
N142        N  0.71073102  0.14464507  0.21294663    -0.02400
C143        C  0.69985708  0.10068959  0.18868283     0.00200
C144        C  0.64781096  0.09005864  0.19686808    -0.22700
C145        C  0.62742493  0.12616837  0.22925525    -0.22900
C146        C  0.66695329  0.15870040  0.23954682     0.00100
H147        H  0.62729705  0.05762367  0.18336543     0.13900
H148        H  0.58928517  0.12599076  0.24743172     0.13900
N149        N  0.27059479  0.11385237  0.75829179    -0.02400
C150        C  0.27597454  0.06816694  0.78205817     0.00200
C151        C  0.32686279  0.05149975  0.77599867    -0.22700
C152        C  0.35208363  0.08541711  0.74505567    -0.22900
C153        C  0.31673442  0.12310394  0.73418164     0.00100
H154        H  0.34369607  0.01708186  0.79085883     0.13900
H155        H  0.39109073  0.08142644  0.72934302     0.13900
N156        N  0.72075943  0.12310859  0.76504574    -0.02400
C157        C  0.71657633  0.07446682  0.78209084     0.00200
C158        C  0.67108881  0.05438790  0.76321845    -0.22700
C159        C  0.64816398  0.08972528  0.73221169    -0.22900
C160        C  0.67955973  0.13096649  0.73280426     0.00100
H161        H  0.65785474  0.01631152  0.76811408     0.13900
H162        H  0.61395492  0.08472395  0.70876142     0.13900
O163        O  0.54076039  0.73874649  0.43529995    -0.71900
O164        O  0.42342109  0.72372727  0.54170117    -0.72800
O165        O  0.43048574  0.72797802  0.42877064    -0.61500
O166        O  0.53516312  0.73540036  0.54813409    -0.69900
O167        O  0.51792722  0.81697572  0.55176447    -0.69400
O168        O  0.42025858  0.81069846  0.43202980    -0.60700
O169        O  0.40905818  0.80598291  0.54087060    -0.73200
O170        O  0.52926802  0.82114872  0.44183481    -0.72000
Cu171      Cu  0.48263106  0.72829869  0.48839826     1.04600
Cu172      Cu  0.46880509  0.81631199  0.49163148     1.04300
C173        C  0.55379741  0.78324771  0.42269991     0.94300
C174        C  0.39779965  0.76240159  0.55774295     0.93500
C175        C  0.40960750  0.76861637  0.41154065     0.85600
C176        C  0.54254340  0.77841710  0.56884702     0.91900
N177        N  0.27896166  0.85124388  0.20534619    -0.02400
C178        C  0.28320047  0.89880997  0.18592861     0.00200
C179        C  0.33303138  0.91572260  0.19402030    -0.22700
C180        C  0.35944060  0.87892192  0.22031429    -0.22900
C181        C  0.32568641  0.83978311  0.22714695     0.00100
H182        H  0.34728852  0.95295194  0.18606625     0.13900
H183        H  0.39724420  0.88275577  0.23767853     0.13900
N184        N  0.70957395  0.88054365  0.23536607    -0.02400
C185        C  0.70134602  0.92664118  0.21277585     0.00200
C186        C  0.66049749  0.95135808  0.23758487    -0.22700
C187        C  0.64288637  0.92089858  0.27619817    -0.22900
C188        C  0.67368511  0.87829504  0.27484179     0.00100
H189        H  0.64678844  0.98903327  0.23041233     0.13900
H190        H  0.61161942  0.92941105  0.30352142     0.13900
N191        N  0.26098671  0.84033312  0.76396122    -0.02400
C192        C  0.26592051  0.88989717  0.77719663     0.00200
C193        C  0.31068340  0.90862907  0.75485118    -0.22700
C194        C  0.33389756  0.87113838  0.72697352    -0.22900
C195        C  0.30293975  0.82984763  0.73251622     0.00100
H196        H  0.32277945  0.94710334  0.75463821     0.13900
H197        H  0.36734444  0.87480621  0.70131934     0.13900
N198        N  0.72667608  0.86685641  0.73345075    -0.02400
C199        C  0.74382783  0.91480568  0.73893178     0.00200
C200        C  0.72198397  0.94531018  0.70095709    -0.22700
C201        C  0.68928526  0.91651685  0.67281923    -0.22900
C202        C  0.69144815  0.86900409  0.69411869     0.00100
H203        H  0.72711483  0.98524083  0.69601177     0.13900
H204        H  0.66434022  0.92949979  0.64170616     0.13900
C205        C  0.76041132  0.76585416  0.17239940     0.81300
N206        N  0.73179114  0.80821530  0.18209281    -0.77000
C207        C  0.74534252  0.84053590  0.22067510     0.83800
N208        N  0.78680427  0.82863544  0.25134344    -0.76900
C209        C  0.81571186  0.78602245  0.24222730     0.83900
N210        N  0.80172883  0.75457888  0.20323321    -0.78700
O211        O  0.15193533  0.43581999  0.53592724    -0.71900
O212        O  0.15872729  0.55079615  0.43701491    -0.72800
O213        O  0.15703095  0.44517686  0.42515397    -0.61500
O214        O  0.15443841  0.54107769  0.54710504    -0.69900
O215        O  0.24043207  0.54216039  0.54660894    -0.69400
O216        O  0.24294092  0.44119190  0.42523488    -0.60700
O217        O  0.24449914  0.55134024  0.43400136    -0.73200
O218        O  0.23787803  0.43272174  0.53751125    -0.72000
Cu219      Cu  0.15296091  0.49333498  0.48621841     1.04600
Cu220      Cu  0.24475223  0.49170342  0.48606788     1.04300
C221        C  0.19374348  0.41556727  0.55229685     0.94300
C222        C  0.20074060  0.56969684  0.41936399     0.93500
C223        C  0.19964893  0.42739594  0.40619792     0.85600
C224        C  0.19674637  0.55760076  0.56548864     0.91900
N225        N  0.12159740  0.23704421  0.25207325    -0.02400
C226        C  0.07162792  0.22095077  0.25255069     0.00200
C227        C  0.04224842  0.24712824  0.28916613    -0.22700
C228        C  0.07400913  0.28097801  0.31137667    -0.22900
C229        C  0.12194302  0.27528403  0.28730414     0.00100
H230        H  0.00126186  0.24346372  0.29722220     0.13900
H231        H  0.06265793  0.30899026  0.34003719     0.13900
N232        N  0.12509062  0.77806293  0.28183539    -0.02400
C233        C  0.08228420  0.80789759  0.29022850     0.00200
C234        C  0.06663732  0.80364308  0.34210899    -0.22700
C235        C  0.09759319  0.76798805  0.36487842    -0.22900
C236        C  0.13242895  0.75189047  0.32705736     0.00100
H237        H  0.03304514  0.82124222  0.36049145     0.13900
H238        H  0.09223801  0.75218416  0.40353559     0.13900
N239        N  0.12890469  0.20198055  0.67832858    -0.02400
C240        C  0.08596547  0.17455472  0.66935872     0.00200
C241        C  0.07173755  0.18017632  0.61750913    -0.22700
C242        C  0.10518293  0.21353045  0.59500463    -0.22900
C243        C  0.13978477  0.22671789  0.63302226     0.00100
H244        H  0.03940201  0.16385080  0.59859331     0.13900
H245        H  0.10203479  0.22937329  0.55618640     0.13900
N246        N  0.10763940  0.74771374  0.71867421    -0.02400
C247        C  0.05725646  0.76404596  0.71597421     0.00200
C248        C  0.03439425  0.74397330  0.67194485    -0.22700
C249        C  0.07034341  0.71340381  0.64821601    -0.22900
C250        C  0.11440527  0.71525519  0.67799854     0.00100
H251        H  0.99429173  0.74805036  0.66036389     0.13900
H252        H  0.06387375  0.68934939  0.61495801     0.13900
O253        O  0.83154466  0.54385077  0.42809737    -0.71900
O254        O  0.83287017  0.43890873  0.54262372    -0.72800
O255        O  0.84533656  0.43788528  0.43121423    -0.61500
O256        O  0.81895097  0.54525476  0.53966194    -0.69900
O257        O  0.73387921  0.53440966  0.53659616    -0.69400
O258        O  0.76015780  0.43044324  0.42350188    -0.60700
O259        O  0.74846601  0.42719135  0.53441473    -0.73200
O260        O  0.74594554  0.53834022  0.42394542    -0.72000
Cu261      Cu  0.83500823  0.49187211  0.48562934     1.04600
Cu262      Cu  0.74410485  0.48239249  0.47907173     1.04300
C263        C  0.78843609  0.55824459  0.40848196     0.94300
C264        C  0.79157195  0.41587878  0.55620017     0.93500
C265        C  0.80641398  0.41643706  0.41106479     0.85600
C266        C  0.77302294  0.55628100  0.55592062     0.91900
N267        N  0.87161842  0.20199248  0.28227457    -0.02400
C268        C  0.91381509  0.17053089  0.28663506     0.00200
C269        C  0.93353281  0.17480874  0.33673177    -0.22700
C270        C  0.90415257  0.21022639  0.36270312    -0.22900
C271        C  0.86683831  0.22673146  0.32847059     0.00100
H272        H  0.96958173  0.15924875  0.35109482     0.13900
H273        H  0.91250971  0.22601092  0.40055787     0.13900
N274        N  0.85535432  0.77082845  0.27868372    -0.02400
C275        C  0.90420036  0.78955397  0.28405335     0.00200
C276        C  0.92933543  0.76519645  0.32447739    -0.22700
C277        C  0.89639707  0.73043336  0.34432387    -0.22900
C278        C  0.85163801  0.73377557  0.31561018     0.00100
H279        H  0.96928124  0.76883973  0.33521002     0.13900
H280        H  0.90556664  0.70277548  0.37397961     0.13900
N281        N  0.86532604  0.21450431  0.70015062    -0.02400
C282        C  0.90717951  0.18618843  0.68462287     0.00200
C283        C  0.92522830  0.20286967  0.63651506    -0.22700
C284        C  0.89443601  0.24258535  0.62232732    -0.22900
C285        C  0.85817605  0.24905616  0.66170406     0.00100
H286        H  0.95844169  0.19016652  0.61593814     0.13900
H287        H  0.89925997  0.26557064  0.58777042     0.13900
N288        N  0.84010863  0.71982914  0.74094495    -0.02400
C289        C  0.89171132  0.72389827  0.75111370     0.00200
C290        C  0.91932647  0.68440981  0.72864214    -0.22700
C291        C  0.88460970  0.65590172  0.70277012    -0.22900
C292        C  0.83660873  0.67861879  0.70979205     0.00100
H293        H  0.96096748  0.67852330  0.72870598     0.13900
H294        H  0.89380931  0.62393575  0.67815044     0.13900
C295        C  0.16496776  0.21833802  0.22152013     0.81300
N296        N  0.18194204  0.24423526  0.17891567    -0.77000
C297        C  0.22575416  0.22942992  0.15261764     0.83800
N298        N  0.25366985  0.18885421  0.17055020    -0.76900
C299        C  0.23686750  0.16218659  0.21327794     0.83900
N300        N  0.19283549  0.17775282  0.23880909    -0.78700
C301        C  0.78598468  0.32862040  0.39357260    -0.11200
C302        C  0.81433137  0.37078781  0.37886102     0.05800
C303        C  0.85325196  0.36543837  0.33978045    -0.06500
C304        C  0.86324963  0.31811724  0.31749760    -0.07200
C305        C  0.83905473  0.27501644  0.33709175    -0.01800
C306        C  0.80023584  0.28070647  0.37590271     0.05100
N307        N  0.77878614  0.23852071  0.40221715     0.67600
H308        H  0.75646007  0.33208138  0.42384866     0.16500
H309        H  0.89452436  0.31419594  0.28898981     0.16200
N310        N  0.88482373  0.40657649  0.32414461     0.75300
O311        O  0.80493517  0.21724565  0.43750072    -0.38200
O312        O  0.73020077  0.23473528  0.40365703    -0.38100
O313        O  0.92965819  0.40987844  0.34295704    -0.38800
O314        O  0.87510117  0.42897745  0.28183402    -0.38900
C315        C  0.83205767  0.37982675  0.63661315    -0.11200
C316        C  0.79510934  0.37552408  0.59679782     0.05800
C317        C  0.76625802  0.33071235  0.59444692    -0.06500
C318        C  0.78047862  0.28936791  0.62559804    -0.07200
C319        C  0.82175223  0.29218802  0.66040389    -0.01800
C320        C  0.84313419  0.33935867  0.67014774     0.05100
N321        N  0.87935245  0.34514387  0.71155188     0.67600
H322        H  0.85276499  0.41454297  0.64141521     0.16500
H323        H  0.76347720  0.25329776  0.61778380     0.16200
N324        N  0.72715725  0.32376800  0.55626549     0.75300
O325        O  0.92699475  0.33646044  0.70332924    -0.38200
O326        O  0.86266765  0.34882727  0.75797415    -0.38100
O327        O  0.73860156  0.29891322  0.51576499    -0.38800
O328        O  0.68019315  0.32719392  0.57044817    -0.38900
C329        C  0.76694598  0.64720343  0.38997072    -0.11200
C330        C  0.78800306  0.60168856  0.37179971     0.05800
C331        C  0.81607201  0.60173317  0.32400338    -0.06500
C332        C  0.82644393  0.64737603  0.29844204    -0.07200
C333        C  0.81261907  0.69361259  0.32141040    -0.01800
C334        C  0.78003093  0.69289261  0.36611435     0.05100
N335        N  0.76493870  0.73829657  0.39168204     0.67600
H336        H  0.74515510  0.64796435  0.42646829     0.16500
H337        H  0.85222135  0.64685244  0.26463898     0.16200
N338        N  0.83800422  0.55650770  0.30294273     0.75300
O339        O  0.79311371  0.75509061  0.42742560    -0.38200
O340        O  0.71791240  0.75167593  0.39030818    -0.38100
O341        O  0.81723326  0.53716340  0.26356876    -0.38800
O342        O  0.88446589  0.54506321  0.31321659    -0.38900
C343        C  0.76778949  0.61901860  0.68843011    -0.11200
C344        C  0.79333167  0.66369872  0.67599205     0.05800
C345        C  0.79710618  0.67793279  0.62280955    -0.06500
C346        C  0.78448276  0.64378332  0.58364689    -0.07200
C347        C  0.76666371  0.59594550  0.59619426    -0.01800
C348        C  0.75412448  0.58512639  0.64889193     0.05100
N349        N  0.73381602  0.53758724  0.66354837     0.67600
H350        H  0.76478911  0.60728006  0.72892511     0.16500
H351        H  0.79368011  0.65290202  0.54330240     0.16200
N352        N  0.82390533  0.72230271  0.60773401     0.75300
O353        O  0.76433274  0.50411331  0.68056917    -0.38200
O354        O  0.68577608  0.53397737  0.67253457    -0.38100
O355        O  0.87193623  0.71947278  0.59777326    -0.38800
O356        O  0.79812780  0.75945504  0.59102065    -0.38900
C357        C  0.95797691  0.75149795  0.81092745    -0.11200
C358        C  0.92014153  0.76616238  0.77466488     0.05800
C359        C  0.93243293  0.80713640  0.74180702    -0.06500
C360        C  0.98472266  0.82078979  0.73518625    -0.07200
C361        C  0.02430210  0.79024854  0.75638791    -0.01800
C362        C  0.01040161  0.76284654  0.80164097     0.05100
N363        N  0.04874543  0.74039220  0.83421123     0.67600
H364        H  0.94899131  0.72283002  0.83956090     0.16500
H365        H  0.99426213  0.84573626  0.70308494     0.16200
N366        N  0.89508107  0.82741562  0.70650070     0.75300
O367        O  0.05766145  0.69385699  0.83069499    -0.38200
O368        O  0.06086449  0.76289316  0.87553544    -0.38100
O369        O  0.87549010  0.87013634  0.71580576    -0.38800
O370        O  0.89296130  0.81007024  0.66075955    -0.38900
C371        C  0.02116359  0.11099018  0.69076153    -0.11200
C372        C  0.04997216  0.15162541  0.70878045     0.05800
C373        C  0.02551718  0.18275858  0.74693037    -0.06500
C374        C  0.97106950  0.18261918  0.75234199    -0.07200
C375        C  0.94152287  0.15444348  0.71770939    -0.01800
C376        C  0.96670716  0.11246476  0.69423704     0.05100
N377        N  0.93831568  0.07706995  0.66454202     0.67600
H378        H  0.03943283  0.08410606  0.66439358     0.16500
H379        H  0.95242036  0.21255008  0.77457608     0.16200
N380        N  0.05358760  0.21995723  0.77431442     0.75300
O381        O  0.93035821  0.08552697  0.61675276    -0.38200
O382        O  0.93500647  0.03270253  0.68136666    -0.38100
O383        O  0.05107527  0.26492971  0.75899527    -0.38800
O384        O  0.06730686  0.21081517  0.82058762    -0.38900
C385        C  0.96694154  0.79146891  0.21305430    -0.11200
C386        C  0.93557072  0.82046656  0.24705939     0.05800
C387        C  0.95830931  0.86426035  0.26703590    -0.06500
C388        C  0.01281205  0.86828075  0.26760731    -0.07200
C389        C  0.04465711  0.82800194  0.25054491    -0.01800
C390        C  0.02155940  0.79396181  0.21555341     0.05100
N391        N  0.05174516  0.75616408  0.18944640     0.67600
H392        H  0.95019566  0.75954235  0.19365783     0.16500
H393        H  0.02945378  0.89735100  0.29144025     0.16200
N394        N  0.92763297  0.89989363  0.29578192     0.75300
O395        O  0.05140466  0.71198346  0.20699053    -0.38200
O396        O  0.06513240  0.76326792  0.14247448    -0.38100
O397        O  0.92470918  0.89625938  0.34488666    -0.38800
O398        O  0.91540849  0.94094046  0.27426072    -0.38900
C399        C  0.04041078  0.13648090  0.24374505    -0.11200
C400        C  0.04646350  0.18322430  0.21944699     0.05800
C401        C  0.00389476  0.20089169  0.18941434    -0.06500
C402        C  0.95401923  0.18297452  0.20056261    -0.07200
C403        C  0.94660860  0.14991437  0.24242043    -0.01800
C404        C  0.99012941  0.11899216  0.25459235     0.05100
N405        N  0.98401166  0.07268231  0.28192954     0.67600
H406        H  0.07329083  0.11833268  0.26235111     0.16500
H407        H  0.92144581  0.20323552  0.18425111     0.16200
N408        N  0.00776359  0.24416643  0.15662173     0.75300
O409        O  0.99437430  0.07017668  0.32992422    -0.38200
O410        O  0.98354324  0.03271278  0.25566933    -0.38100
O411        O  0.98845867  0.24219547  0.11159858    -0.38800
O412        O  0.01397233  0.28659573  0.17718257    -0.38900
C413        C  0.16216558  0.40104922  0.32147574    -0.11200
C414        C  0.19682436  0.39056038  0.36225244     0.05800
C415        C  0.22033724  0.34210323  0.36407345    -0.06500
C416        C  0.20144362  0.30333607  0.33238287    -0.07200
C417        C  0.16227077  0.31311419  0.29617805    -0.01800
C418        C  0.14706610  0.36328684  0.28695403     0.05100
N419        N  0.11145280  0.37478960  0.24583834     0.67600
H420        H  0.14523898  0.43830200  0.31761397     0.16500
H421        H  0.21401957  0.26497840  0.33945816     0.16200
N422        N  0.26016104  0.33025640  0.40050430     0.75300
O423        O  0.06477297  0.38564791  0.25679128    -0.38200
O424        O  0.12386366  0.36428511  0.19921456    -0.38100
O425        O  0.24882087  0.30493338  0.44059379    -0.38800
O426        O  0.30672585  0.33062687  0.38472413    -0.38900
C427        C  0.14384826  0.31669419  0.64734667    -0.11200
C428        C  0.16926679  0.27369650  0.62785410     0.05800
C429        C  0.20828045  0.27964355  0.58925962    -0.06500
C430        C  0.22056682  0.32769817  0.57080334    -0.07200
C431        C  0.19015142  0.36959739  0.58499855    -0.01800
C432        C  0.15136303  0.36374534  0.62416211     0.05100
N433        N  0.11673656  0.40402348  0.63846009     0.67600
H434        H  0.11228648  0.31267513  0.67540148     0.16500
H435        H  0.24986774  0.33126456  0.54036934     0.16200
N436        N  0.23188867  0.23730949  0.56412315     0.75300
O437        O  0.07508023  0.40959492  0.61355824    -0.38200
O438        O  0.11951236  0.42270259  0.68358196    -0.38100
O439        O  0.21106013  0.21978801  0.52383728    -0.38800
O440        O  0.27954522  0.22925378  0.57093677    -0.38900
C441        C  0.14757896  0.61486537  0.35526442    -0.11200
C442        C  0.19488215  0.61265539  0.38178813     0.05800
C443        C  0.22821836  0.65449770  0.37707498    -0.06500
C444        C  0.20989267  0.69915583  0.35295400    -0.07200
C445        C  0.15946836  0.70261295  0.33292551    -0.01800
C446        C  0.12908702  0.65899689  0.33261740     0.05100
N447        N  0.07637137  0.66009827  0.31570999     0.67600
H448        H  0.12184973  0.58305826  0.35620960     0.16500
H449        H  0.23378283  0.73214107  0.35304919     0.16200
N450        N  0.27961755  0.65358993  0.39738265     0.75300
O451        O  0.06510149  0.63580341  0.27528157    -0.38200
O452        O  0.04094356  0.66927154  0.34897526    -0.38100
O453        O  0.31709075  0.64924486  0.36552658    -0.38800
O454        O  0.28769802  0.67447863  0.44056143    -0.38900
C455        C  0.16513887  0.58797528  0.65292313    -0.11200
C456        C  0.19365848  0.59692034  0.60680655     0.05800
C457        C  0.20925025  0.64642259  0.59608027    -0.06500
C458        C  0.19075428  0.68641853  0.62711422    -0.07200
C459        C  0.15687821  0.67802294  0.66916920    -0.01800
C460        C  0.14780055  0.62802852  0.68469021     0.05100
N461        N  0.11470000  0.61798334  0.72856959     0.67600
H462        H  0.15307242  0.55021014  0.66226309     0.16500
H463        H  0.19702003  0.72449023  0.61389138     0.16200
N464        N  0.23557385  0.65793730  0.54853842     0.75300
O465        O  0.06623518  0.61600223  0.72267868    -0.38200
O466        O  0.13300694  0.61891969  0.77404595    -0.38100
O467        O  0.20913821  0.67284220  0.51017561    -0.38800
O468        O  0.28352173  0.66663286  0.54958341    -0.38900
C469        C  0.39880042  0.75279319  0.31745770    -0.11200
C470        C  0.37644813  0.76879507  0.36473986     0.05800
C471        C  0.32912586  0.79602154  0.36359628    -0.06500
C472        C  0.30750821  0.80995773  0.31564866    -0.07200
C473        C  0.33487191  0.80183353  0.26865685    -0.01800
C474        C  0.38044911  0.77148339  0.26963830     0.05100
N475        N  0.41237754  0.76454941  0.22408066     0.67600
H476        H  0.43498780  0.73169310  0.31795924     0.16500
H477        H  0.27324129  0.83407430  0.31600492     0.16200
N478        N  0.30537185  0.81459148  0.41050549     0.75300
O479        O  0.44255438  0.79910139  0.21037699    -0.38200
O480        O  0.42288158  0.72047947  0.20929553    -0.38100
O481        O  0.31403073  0.85904693  0.42436905    -0.38800
O482        O  0.26574629  0.79299030  0.42833294    -0.38900
C483        C  0.38036404  0.74300091  0.64945622    -0.11200
C484        C  0.36013448  0.75838287  0.60152471     0.05800
C485        C  0.31049045  0.78161146  0.60081941    -0.06500
C486        C  0.28473379  0.79287297  0.64814389    -0.07200
C487        C  0.31053639  0.78743913  0.69589952    -0.01800
C488        C  0.35783297  0.75982470  0.69640119     0.05100
N489        N  0.38890110  0.75729514  0.74216411     0.67600
H490        H  0.41871986  0.72574053  0.65057065     0.16500
H491        H  0.24898543  0.81481453  0.64676260     0.16200
N492        N  0.28843498  0.79960499  0.55327286     0.75300
O493        O  0.40042296  0.71469070  0.76029375    -0.38200
O494        O  0.41834442  0.79337414  0.75196526    -0.38100
O495        O  0.24953652  0.77762820  0.53528749    -0.38800
O496        O  0.29670421  0.84427103  0.53950408    -0.38900
C497        C  0.63358087  0.82900465  0.40316028    -0.11200
C498        C  0.59831921  0.79288490  0.38724219     0.05800
C499        C  0.60171658  0.77446311  0.33552997    -0.06500
C500        C  0.63551135  0.79723182  0.29929490    -0.07200
C501        C  0.66538959  0.83828225  0.31386852    -0.01800
C502        C  0.66712220  0.85155437  0.36726497     0.05100
N503        N  0.69751201  0.89265199  0.38447883     0.67600
H504        H  0.63226778  0.84272778  0.44302455     0.16500
H505        H  0.63331518  0.78711913  0.25843919     0.16200
N506        N  0.56617112  0.73823137  0.31711217     0.75300
O507        O  0.67617061  0.93528196  0.38978031    -0.38200
O508        O  0.73946942  0.88352455  0.40779756    -0.38100
O509        O  0.52723286  0.75308035  0.29166489    -0.38800
O510        O  0.58101940  0.69309363  0.31312967    -0.38900
C511        C  0.56368255  0.82194903  0.65057042    -0.11200
C512        C  0.57889796  0.78623087  0.61309428     0.05800
C513        C  0.63063130  0.76736730  0.61428236    -0.06500
C514        C  0.66744275  0.79043389  0.64662375    -0.07200
C515        C  0.65294431  0.83087916  0.67891836    -0.01800
C516        C  0.59970892  0.84394556  0.68341283     0.05100
N517        N  0.58221956  0.88336196  0.71750929     0.67600
H518        H  0.52387627  0.83574395  0.65184063     0.16500
H519        H  0.70797336  0.77946686  0.64325633     0.16200
N520        N  0.64747137  0.72763196  0.58057072     0.75300
O521        O  0.57487949  0.92683942  0.69918235    -0.38200
O522        O  0.56142435  0.87209781  0.76074182    -0.38100
O523        O  0.67270944  0.73795348  0.53950589    -0.38800
O524        O  0.65001699  0.68362921  0.59870844    -0.38900
C525        C  0.80902271  0.97376569  0.76654581    -0.11200
C526        C  0.77261256  0.93805360  0.78281305     0.05800
C527        C  0.74275249  0.95137198  0.82745859    -0.06500
C528        C  0.73473920  0.00256099  0.83963252    -0.07200
C529        C  0.75590090  0.04002960  0.80706835    -0.01800
C530        C  0.80005524  0.02504201  0.77738138     0.05100
N531        N  0.83193583  0.06099571  0.75217138     0.67600
H532        H  0.83684574  0.96399403  0.73604779     0.16500
H533        H  0.70387857  0.01253460  0.86699254     0.16200
N534        N  0.71392782  0.91455683  0.85541564     0.75300
O535        O  0.82654048  0.06888090  0.70390004    -0.38200
O536        O  0.87368513  0.07301395  0.77378010    -0.38100
O537        O  0.73037164  0.89982815  0.89914309    -0.38800
O538        O  0.66722987  0.90714562  0.84381921    -0.38900
C539        C  0.24751765  0.00482383  0.84603718    -0.11200
C540        C  0.23517700  0.03250765  0.80088441     0.05800
C541        C  0.20459190  0.00785550  0.76336000    -0.06500
C542        C  0.20026773  0.95503609  0.76477428    -0.07200
C543        C  0.22812968  0.92627756  0.80142756    -0.01800
C544        C  0.24447747  0.95201704  0.84649978     0.05100
N545        N  0.26821275  0.92512097  0.88837172     0.67600
H546        H  0.26897057  0.02277569  0.87680620     0.16500
H547        H  0.18483533  0.93647399  0.73077757     0.16200
N548        N  0.18655661  0.03384480  0.71813127     0.75300
O549        O  0.31686936  0.91916225  0.88835812    -0.38200
O550        O  0.24305670  0.91958915  0.93051479    -0.38100
O551        O  0.21127853  0.02843856  0.67567936    -0.38800
O552        O  0.13978503  0.04840681  0.71687220    -0.38900
C553        C  0.77253691  0.98354633  0.20296653    -0.11200
C554        C  0.73490195  0.95605409  0.17674048     0.05800
C555        C  0.71118177  0.98001898  0.13333439    -0.06500
C556        C  0.71536852  0.03225054  0.12679697    -0.07200
C557        C  0.73647466  0.06148619  0.16664652    -0.01800
C558        C  0.77194783  0.03641279  0.20016856     0.05100
N559        N  0.80169832  0.06309008  0.23722919     0.67600
H560        H  0.79379393  0.96571284  0.23446218     0.16500
H561        H  0.69034880  0.05041271  0.09845724     0.16200
N562        N  0.67287133  0.95506723  0.10347940     0.75300
O563        O  0.78835875  0.06131055  0.28471405    -0.38200
O564        O  0.84825330  0.07272189  0.22587228    -0.38100
O565        O  0.62687887  0.95379252  0.12084110    -0.38800
O566        O  0.68076987  0.94918934  0.05511312    -0.38900
C567        C  0.21022340  0.95231805  0.21405175    -0.11200
C568        C  0.24113921  0.93553502  0.17208105     0.05800
C569        C  0.25281081  0.97130575  0.13309997    -0.06500
C570        C  0.25211509  0.02295371  0.14578047    -0.07200
C571        C  0.23431259  0.03927795  0.19530153    -0.01800
C572        C  0.20564099  0.00399437  0.22531330     0.05100
N573        N  0.18237865  0.01829310  0.27408811     0.67600
H574        H  0.19786022  0.92570899  0.24355180     0.16500
H575        H  0.27174187  0.04896510  0.12000568     0.16200
N576        N  0.27229537  0.95482000  0.08344571     0.75300
O577        O  0.13373083  0.02389790  0.27666259    -0.38200
O578        O  0.20718784  0.01085061  0.31568895    -0.38100
O579        O  0.24065367  0.93952888  0.05000765    -0.38800
O580        O  0.32001731  0.94501904  0.07734792    -0.38900
C581        C  0.33891492  0.19193328  0.39625755    -0.11200
C582        C  0.38577822  0.21388176  0.38143222     0.05800
C583        C  0.39623384  0.22067427  0.32764543    -0.06500
C584        C  0.36270187  0.20083277  0.29000808    -0.07200
C585        C  0.31918878  0.17295727  0.30506545    -0.01800
C586        C  0.30587338  0.17134635  0.35900486     0.05100
N587        N  0.26429960  0.14090546  0.37746206     0.67600
H588        H  0.33051481  0.18586857  0.43740690     0.16500
H589        H  0.37451849  0.20155891  0.24921290     0.16200
N590        N  0.44333603  0.24298761  0.31053746     0.75300
O591        O  0.27372578  0.09575880  0.38944036    -0.38200
O592        O  0.22388197  0.16202405  0.39565478    -0.38100
O593        O  0.48048674  0.21528091  0.29489407    -0.38800
O594        O  0.44285914  0.28897441  0.29893326    -0.38900
C595        C  0.35569399  0.15525314  0.59944624    -0.11200
C596        C  0.38398042  0.19904164  0.60654019     0.05800
C597        C  0.37524018  0.22707252  0.65264639    -0.06500
C598        C  0.34879536  0.20456566  0.69526443    -0.07200
C599        C  0.32538590  0.15755391  0.68933928    -0.01800
C600        C  0.32440879  0.13624252  0.63910246     0.05100
N601        N  0.29419980  0.09317911  0.62836359     0.67600
H602        H  0.35830275  0.13510241  0.56271941     0.16500
H603        H  0.34788134  0.22271134  0.73293219     0.16200
N604        N  0.38954400  0.27855819  0.65515723     0.75300
O605        O  0.25056111  0.09975422  0.60735408    -0.38200
O606        O  0.31662295  0.05094504  0.62434709    -0.38100
O607        O  0.36037122  0.31145531  0.63485313    -0.38800
O608        O  0.43424278  0.29046506  0.66952615    -0.38900
C609        C  0.64392583  0.17786310  0.37961155    -0.11200
C610        C  0.61197575  0.22074582  0.37966180     0.05800
C611        C  0.61316167  0.25248237  0.33532830    -0.06500
C612        C  0.63772842  0.23539034  0.28887873    -0.07200
C613        C  0.66469515  0.18917659  0.28778847    -0.01800
C614        C  0.67149539  0.16306348  0.33518924     0.05100
N615        N  0.70216134  0.11818315  0.33794908     0.67600
H616        H  0.64601420  0.15412045  0.41403884     0.16500
H617        H  0.63289129  0.25652894  0.25307996     0.16200
N618        N  0.58834961  0.30067176  0.33593387     0.75300
O619        O  0.74584693  0.12038611  0.35947974    -0.38200
O620        O  0.67992117  0.07641655  0.33558118    -0.38100
O621        O  0.61529494  0.33861914  0.34543275    -0.38800
O622        O  0.54572195  0.30668466  0.31301355    -0.38900
C623        C  0.65787847  0.18535504  0.60118878    -0.11200
C624        C  0.61158642  0.21218633  0.61087665     0.05800
C625        C  0.59855515  0.22450719  0.66295489    -0.06500
C626        C  0.62798203  0.20470434  0.70437549    -0.07200
C627        C  0.67055704  0.17243928  0.69484223    -0.01800
C628        C  0.68748746  0.16566690  0.64244172     0.05100
N629        N  0.72955491  0.13206706  0.62998941     0.67600
H630        H  0.66847175  0.17542955  0.56137082     0.16500
H631        H  0.61340607  0.20904359  0.74400571     0.16200
N632        N  0.55016835  0.24858000  0.67461332     0.75300
O633        O  0.72005335  0.08664905  0.62088291    -0.38200
O634        O  0.77202345  0.14987576  0.61420120    -0.38100
O635        O  0.51064026  0.22205738  0.68202226    -0.38800
O636        O  0.54506158  0.29527463  0.66791099    -0.38900
C637        C  0.32445316  0.39173598  0.73851542    -0.11200
C638        C  0.37044445  0.37196249  0.75871210     0.05800
C639        C  0.36894758  0.32556645  0.78511231    -0.06500
C640        C  0.32123316  0.30235659  0.79456456    -0.07200
C641        C  0.27418098  0.32645975  0.78204628    -0.01800
C642        C  0.27638129  0.37101435  0.75180042     0.05100
N643        N  0.23088585  0.39911229  0.73853386     0.67600
H644        H  0.32516909  0.42738759  0.71812578     0.16500
H645        H  0.32084290  0.26882494  0.81861243     0.16200
N646        N  0.41485793  0.30305944  0.80581483     0.75300
O647        O  0.20981511  0.42684032  0.77284121    -0.38200
O648        O  0.22504328  0.41071007  0.69119317    -0.38100
O649        O  0.42508343  0.30966529  0.85337777    -0.38800
O650        O  0.43491163  0.26592878  0.78227324    -0.38900
C651        C  0.65353658  0.39034511  0.75414538    -0.11200
C652        C  0.60579913  0.37155032  0.77067154     0.05800
C653        C  0.60513965  0.32541927  0.79796246    -0.06500
C654        C  0.65208589  0.30129464  0.81142554    -0.07200
C655        C  0.69981650  0.32472376  0.80260517    -0.01800
C656        C  0.70011821  0.36903287  0.77202482     0.05100
N657        N  0.74608800  0.39763853  0.76590462     0.67600
H658        H  0.65473363  0.42612899  0.73396130     0.16500
H659        H  0.65063983  0.26828491  0.83618179     0.16200
N660        N  0.55760170  0.30505125  0.81693099     0.75300
O661        O  0.76306879  0.40520164  0.72033705    -0.38200
O662        O  0.75798093  0.42797455  0.80142246    -0.38100
O663        O  0.54102982  0.26558455  0.79633267    -0.38800
O664        O  0.54144942  0.31715933  0.86197058    -0.38900
C665        C  0.37735100  0.62272906  0.81663703    -0.11200
C666        C  0.37119688  0.58803406  0.77620791     0.05800
C667        C  0.32409307  0.58931696  0.74812878    -0.06500
C668        C  0.28185377  0.61867513  0.76696674    -0.07200
C669        C  0.28657925  0.64837366  0.81186765    -0.01800
C670        C  0.33628541  0.65383753  0.83339210     0.05100
N671        N  0.34378159  0.68522702  0.87784134     0.67600
H672        H  0.41367888  0.62380886  0.83752232     0.16500
H673        H  0.24397640  0.61404429  0.74986111     0.16200
N674        N  0.31647225  0.55767197  0.70402124     0.75300
O675        O  0.33864778  0.66707688  0.92314758    -0.38200
O676        O  0.36725202  0.72606894  0.87201219    -0.38100
O677        O  0.28705391  0.52051692  0.70872477    -0.38800
O678        O  0.32571564  0.57486524  0.65894326    -0.38900
C679        C  0.56841629  0.64035591  0.78024112    -0.11200
C680        C  0.59036737  0.59233588  0.78692651     0.05800
C681        C  0.64051053  0.58814017  0.80835113    -0.06500
C682        C  0.66638839  0.63133880  0.82444093    -0.07200
C683        C  0.64173205  0.67863101  0.82377322    -0.01800
C684        C  0.59273093  0.68310020  0.79992180     0.05100
N685        N  0.56463129  0.72964244  0.80026431     0.67600
H686        H  0.52968651  0.64422310  0.76446496     0.16500
H687        H  0.70311688  0.62683123  0.84434686     0.16200
N688        N  0.66402286  0.54030764  0.81841691     0.75300
O689        O  0.56525925  0.75648123  0.75965117    -0.38200
O690        O  0.52879295  0.73638408  0.83365025    -0.38100
O691        O  0.70325530  0.52699006  0.79167872    -0.38800
O692        O  0.65612994  0.51969141  0.86216843    -0.38900
C693        C  0.73720760  0.81269973  0.98408552    -0.11200
C694        C  0.75064313  0.77674778  0.94607832     0.05800
C695        C  0.79577406  0.74723281  0.95533614    -0.06500
C696        C  0.81586630  0.74472953  0.00642290    -0.07200
C697        C  0.78666597  0.76550844  0.04828410    -0.01800
C698        C  0.75600770  0.80779325  0.03516352     0.05100
N699        N  0.73770562  0.84173262  0.07423248     0.67600
H700        H  0.70528942  0.83867372  0.97713709     0.16500
H701        H  0.84419414  0.71541047  0.01475767     0.16200
N702        N  0.81441385  0.71175415  0.91753871     0.75300
O703        O  0.76535955  0.87877999  0.08529201    -0.38200
O704        O  0.69010265  0.84266364  0.08634707    -0.38100
O705        O  0.85825377  0.71821388  0.89637320    -0.38800
O706        O  0.79436530  0.66891888  0.91582492    -0.38900
C707        C  0.78647932  0.22354434  0.96899113    -0.11200
C708        C  0.82038610  0.25081137  0.93675920     0.05800
C709        C  0.86641429  0.26777304  0.96021250    -0.06500
C710        C  0.86970177  0.27018629  0.01510208    -0.07200
C711        C  0.82682969  0.25820496  0.04705751    -0.01800
C712        C  0.78768285  0.22905356  0.02386066     0.05100
N713        N  0.74351015  0.21328969  0.05335736     0.67600
H714        H  0.75186348  0.20811291  0.95197211     0.16500
H715        H  0.90136500  0.29086875  0.03179975     0.16200
N716        N  0.90534861  0.29203896  0.92956552     0.75300
O717        O  0.70332841  0.24091926  0.05403690    -0.38200
O718        O  0.73925679  0.16732300  0.06411687    -0.38100
O719        O  0.90455344  0.33926430  0.92611983    -0.38800
O720        O  0.94696740  0.26842239  0.91913881    -0.38900
C721        C  0.11809391  0.69986797  0.03027130    -0.11200
C722        C  0.16200377  0.71955505  0.05442879     0.05800
C723        C  0.19448037  0.74977173  0.02288202    -0.06500
C724        C  0.19254557  0.74573524  0.96803233    -0.07200
C725        C  0.15925076  0.71142095  0.94467396    -0.01800
C726        C  0.11749124  0.69345584  0.97570387     0.05100
N727        N  0.07976499  0.66080583  0.95426724     0.67600
H728        H  0.09070586  0.67880681  0.05375434     0.16500
H729        H  0.22359362  0.76200639  0.94495515     0.16200
N730        N  0.23564794  0.77736452  0.04527356     0.75300
O731        O  0.08763911  0.61401161  0.95607439    -0.38200
O732        O  0.03390728  0.67707397  0.94901208    -0.38100
O733        O  0.28157285  0.76094341  0.04043412    -0.38800
O734        O  0.22817590  0.82324558  0.05516654    -0.38900
C735        C  0.22405437  0.19412193  0.99373416    -0.11200
C736        C  0.19699803  0.22565120  0.02887530     0.05800
C737        C  0.15004774  0.24690279  0.01056891    -0.06500
C738        C  0.14017914  0.24863639  0.95656385    -0.07200
C739        C  0.17910397  0.23415956  0.92045354    -0.01800
C740        C  0.21753163  0.20022677  0.93938735     0.05100
N741        N  0.25548612  0.17795810  0.90541177     0.67600
H742        H  0.25854231  0.17438415  0.00706136     0.16500
H743        H  0.10822414  0.27215618  0.94332409     0.16200
N744        N  0.11729952  0.27573044  0.04458529     0.75300
O745        O  0.29874854  0.19890203  0.89965626    -0.38200
O746        O  0.25202808  0.13190682  0.89496722    -0.38100
O747        O  0.12413294  0.32233864  0.04830342    -0.38800
O748        O  0.07373272  0.25827732  0.05684401    -0.38900
C749        C  0.34120931  0.39138407  0.19961496    -0.11200
C750        C  0.39270519  0.37512752  0.19419564     0.05800
C751        C  0.40257287  0.32634083  0.17493359    -0.06500
C752        C  0.36135837  0.29589359  0.15992101    -0.07200
C753        C  0.31047627  0.31498839  0.15828921    -0.01800
C754        C  0.30047736  0.36294296  0.18002974     0.05100
N755        N  0.25084247  0.38677423  0.17553172     0.67600
H756        H  0.33304824  0.42915675  0.21303934     0.16500
H757        H  0.37037562  0.26027032  0.14123222     0.16200
N758        N  0.45399985  0.30899634  0.16421120     0.75300
O759        O  0.22693860  0.39874335  0.21694954    -0.38200
O760        O  0.24040184  0.41034054  0.13405907    -0.38100
O761        O  0.47105228  0.27207998  0.19001669    -0.38800
O762        O  0.47297626  0.31744939  0.11944976    -0.38900
C763        C  0.66998122  0.40618259  0.23087806    -0.11200
C764        C  0.62569955  0.38870835  0.20638768     0.05800
C765        C  0.63022381  0.34473107  0.17608497    -0.06500
C766        C  0.67886216  0.32171016  0.16789942    -0.07200
C767        C  0.72436182  0.34430880  0.18480919    -0.01800
C768        C  0.71932300  0.38646176  0.21815441     0.05100
N769        N  0.76338917  0.41272482  0.23609989     0.67600
H770        H  0.66687522  0.43899072  0.25558749     0.16500
H771        H  0.68140443  0.28980473  0.14181384     0.16200
N772        N  0.58655453  0.32337034  0.15163823     0.75300
O773        O  0.78492758  0.44359394  0.20571920    -0.38200
O774        O  0.76779323  0.41876807  0.28465766    -0.38100
O775        O  0.57785142  0.33467116  0.10461206    -0.38800
O776        O  0.57096383  0.28185070  0.16885100    -0.38900
C777        C  0.37964196  0.62818986  0.16968701    -0.11200
C778        C  0.37711462  0.59064611  0.20794260     0.05800
C779        C  0.33056873  0.58621507  0.23751557    -0.06500
C780        C  0.28671019  0.61587876  0.22457352    -0.07200
C781        C  0.28806861  0.64943909  0.18219808    -0.01800
C782        C  0.33624535  0.65775825  0.15707261     0.05100
N783        N  0.33946405  0.68900587  0.11175146     0.67600
H784        H  0.41489200  0.63248140  0.14666057     0.16500
H785        H  0.24972847  0.60769478  0.24307267     0.16200
N786        N  0.32404670  0.54627174  0.27414091     0.75300
O787        O  0.35870849  0.73202497  0.11567484    -0.38200
O788        O  0.33602884  0.66929877  0.06714361    -0.38100
O789        O  0.32718415  0.55526744  0.32232968    -0.38800
O790        O  0.30125388  0.50724445  0.25972125    -0.38900
C791        C  0.69249692  0.63783381  0.21867943    -0.11200
C792        C  0.67862016  0.67798154  0.18583218     0.05800
C793        C  0.62520461  0.68716134  0.17736419    -0.06500
C794        C  0.58864250  0.65101388  0.19188960    -0.07200
C795        C  0.60362481  0.60684933  0.21787483    -0.01800
C796        C  0.65538271  0.60269189  0.23541848     0.05100
N797        N  0.67249804  0.56019145  0.26476133     0.67600
H798        H  0.73320266  0.63000955  0.22581337     0.16500
H799        H  0.54885739  0.65578520  0.17926918     0.16200
N800        N  0.60856569  0.72856229  0.14583490     0.75300
O801        O  0.69808969  0.52606076  0.24161259    -0.38200
O802        O  0.67610696  0.56419197  0.31369953    -0.38100
O803        O  0.60239777  0.72236436  0.09744557    -0.38800
O804        O  0.58870514  0.76674573  0.16768296    -0.38900
loop_ 
_geom_bond_atom_site_label_1 
_geom_bond_atom_site_label_2 
_geom_bond_distance 
_geom_bond_site_symmetry_2 
_ccdc_geom_bond_type 
C1            N2   1.365       .  A
C1            N6   1.361       .  A
C1          N288   1.442       .  S
N2            C3   1.361       .  A
C3            N4   1.362       .  A
C3          N114   1.439       .  S
N4            C5   1.358       .  A
C5            N6   1.365       .  A
C5          N198   1.439       .  S
C7            N8   1.358       .  A
C7           N12   1.367       .  A
C7          N232   1.442       .  S
N8            C9   1.363       .  A
C9           N10   1.358       .  A
C9           N58   1.437       .  S
N10          C11   1.364       .  A
C11          N12   1.362       .  A
C11         N177   1.442       .  S
C13          N14   1.355       .  A
C13          N18   1.362       .  A
C13         N281   1.436       .  S
N14          C15   1.353       .  A
C15          N16   1.371       .  A
C15         N156   1.442       .  S
N16          C17   1.369       .  A
C17          N18   1.366       .  A
C17         N107   1.449       .  S
C19          N20   1.361       .  A
C19          N24   1.360       .  A
C19         N239   1.433       .  S
N20          C21   1.364       .  A
C21          N22   1.357       .  A
C21          N93   1.442       .  S
N22          C23   1.363       .  A
C23          N24   1.354       .  A
C23         N149   1.433       .  S
C25          N26   1.366       .  A
C25          N30   1.355       .  A
C25         N100   1.441       .  S
N26          C27   1.372       .  A
C27          N28   1.366       .  A
C27         N191   1.447       .  S
N28          C29   1.366       .  A
C29          N30   1.351       .  A
C29         N246   1.438       .  S
C31          N32   1.369       .  A
C31          N36   1.358       .  A
C31          N65   1.445       .  S
N32          C33   1.365       .  A
C33          N34   1.357       .  A
C33         N267   1.441       .  S
N34          C35   1.353       .  A
C35          N36   1.364       .  A
C35         N142   1.432       .  S
O37         Cu45   2.028       .  S
O37          C47   1.280       .  A
O38         Cu45   2.015       .  S
O38          C48   1.277       .  A
O39         Cu45   2.020       .  S
O39          C49   1.281       .  A
O40         Cu45   2.019       .  S
O40          C50   1.278       .  A
O41         Cu46   2.033       .  S
O41          C50   1.280       .  A
O42         Cu46   2.047       .  S
O42          C49   1.280       .  A
O43         Cu46   2.043       .  S
O43          C48   1.281       .  A
O44         Cu46   2.061       .  S
O44          C47   1.282       .  A
Cu45        Cu46   2.370       .  S
C47         C795   1.496       .  S
C48         C750   1.484       .  S
C49         C778   1.494       .  S
C50         C764   1.483       .  S
N51          C55   1.369       .  A
N51          C52   1.372       .  A
N51         C297   1.450       .  S
C52         C736   1.488       .  S
C52          C53   1.383       .  A
C53          C54   1.357       .  A
C53          H56   1.079   1_554  S
C54          C55   1.377       .  A
C54          H57   1.083       .  S
C55         C753   1.479       .  S
N58          C62   1.363       .  A
N58          C59   1.363       .  A
C59         C722   1.494       .  S
C59          C60   1.385       .  A
C60          C61   1.363       .  A
C60          H63   1.079       .  S
C61          C62   1.377       .  A
C61          H64   1.083       .  S
C62         C781   1.481       .  S
N65          C69   1.367       .  A
N65          C66   1.368       .  A
C66         C711   1.502       .  S
C66          C67   1.385       .  A
C67          C68   1.365       .  A
C67          H70   1.080       .  S
C68          C69   1.379       .  A
C68          H71   1.083       .  S
C69         C767   1.485       .  S
N72          C76   1.367       .  A
N72          C73   1.370       .  A
N72         C205   1.442       .  S
C73         C697   1.502       .  S
C73          C74   1.389       .  A
C74          C75   1.360       .  A
C74          H77   1.082       .  S
C75          C76   1.377       .  A
C75          H78   1.083       .  S
C76         C792   1.485       .  S
O79         Cu87   2.023       .  S
O79          C89   1.278       .  A
O80         Cu87   2.009       .  S
O80          C90   1.277       .  A
O81         Cu87   2.003       .  S
O81          C91   1.276       .  A
O82         Cu87   2.022       .  S
O82          C92   1.282       .  A
O83         Cu88   2.048       .  S
O83          C92   1.279       .  A
O84         Cu88   2.044       .  S
O84          C91   1.282       .  A
O85         Cu88   2.034       .  S
O85          C90   1.281       .  A
O86         Cu88   2.046       .  S
O86          C89   1.281       .  A
Cu87        Cu88   2.370       .  S
C89         C680   1.487       .  S
C90         C638   1.479       .  S
C91         C652   1.483       .  S
C92         C666   1.493       .  S
N93          C97   1.368       .  A
N93          C94   1.367       .  A
C94         C739   1.503       .  S
C94          C95   1.386       .  A
C95          C96   1.364       .  A
C95          H98   1.082       .  S
C96          C97   1.379       .  A
C96          H99   1.082       .  S
C97         C641   1.486       .  S
N100        C104   1.362       .  A
N100        C101   1.368       .  A
C101        C725   1.490       .  S
C101        C102   1.384       .  A
C102        C103   1.362       .  A
C102        H105   1.078       .  S
C103        C104   1.377       .  A
C103        H106   1.083       .  S
C104        C669   1.478       .  S
N107        C111   1.369       .  A
N107        C108   1.372       .  A
C108        C708   1.492       .  S
C108        C109   1.382       .  A
C109        C110   1.360       .  A
C109        H112   1.078       .  S
C110        C111   1.378       .  A
C110        H113   1.083       .  S
C111        C655   1.485       .  S
N114        C118   1.364       .  A
N114        C115   1.363       .  A
C115        C694   1.488       .  S
C115        C116   1.384       .  A
C116        C117   1.367       .  A
C116        H119   1.083       .  S
C117        C118   1.380       .  A
C117        H120   1.082       .  S
C118        C683   1.483       .  S
O121       Cu129   2.057       .  S
O121        C131   1.282       .  A
O122       Cu129   2.059       .  S
O122        C132   1.282       .  A
O123       Cu129   2.059       .  S
O123        C133   1.283       .  A
O124       Cu129   2.056       .  S
O124        C134   1.282       .  A
O125       Cu130   2.010       .  S
O125        C134   1.277       .  A
O126       Cu130   2.011       .  S
O126        C133   1.277       .  A
O127       Cu130   1.968       .  S
O127        C132   1.275       .  A
O128       Cu130   1.959       .  S
O128        C131   1.275       .  A
Cu129      Cu130   2.369       .  S
C131        C610   1.483       .  S
C132        C596   1.483       .  S
C133        C624   1.491       .  S
C134        C582   1.488       .  S
N135        C139   1.373       .  A
N135        C136   1.379       .  A
N135        C299   1.454       .  S
C136        C571   1.497       .  S
C136        C137   1.383       .  A
C137        C138   1.357       .  A
C137        H140   1.081       .  S
C138        C139   1.377       .  A
C138        H141   1.083       .  S
C139        C585   1.488       .  S
N142        C146   1.359       .  A
N142        C143   1.362       .  A
C143        C557   1.504       .  S
C143        C144   1.389       .  A
C144        C145   1.367       .  A
C144        H147   1.080       .  S
C145        C146   1.376       .  A
C145        H148   1.083       .  S
C146        C613   1.480       .  S
N149        C153   1.359       .  A
N149        C150   1.366       .  A
C150        C540   1.503       .  S
C150        C151   1.386       .  A
C151        C152   1.368       .  A
C151        H154   1.080       .  S
C152        C153   1.376       .  A
C152        H155   1.082       .  S
C153        C599   1.485       .  S
N156        C160   1.366       .  A
N156        C157   1.373       .  A
C157        C529   1.505       .  S
C157        C158   1.389       .  A
C158        C159   1.363       .  A
C158        H161   1.083       .  S
C159        C160   1.376       .  A
C159        H162   1.083       .  S
C160        C627   1.488       .  S
O163       Cu171   2.033       .  S
O163        C173   1.278       .  A
O164       Cu171   2.040       .  S
O164        C174   1.282       .  A
O165       Cu171   2.045       .  S
O165        C175   1.282       .  A
O166       Cu171   2.065       .  S
O166        C176   1.282       .  A
O167       Cu172   2.005       .  S
O167        C176   1.279       .  A
O168       Cu172   1.992       .  S
O168        C175   1.275       .  A
O169       Cu172   2.000       .  S
O169        C174   1.275       .  A
O170       Cu172   2.007       .  S
O170        C173   1.279       .  A
Cu171      Cu172   2.370       .  S
C173        C498   1.480       .  S
C174        C484   1.479       .  S
C175        C470   1.480       .  S
C176        C512   1.495       .  S
N177        C181   1.363       .  A
N177        C178   1.367       .  A
C178        C568   1.495       .  S
C178        C179   1.386       .  A
C179        C180   1.366       .  A
C179        H182   1.082       .  S
C180        C181   1.379       .  A
C180        H183   1.082       .  S
C181        C473   1.484       .  S
N184        C188   1.364       .  A
N184        C185   1.372       .  A
N184        C207   1.447       .  S
C185        C554   1.488       .  S
C185        C186   1.382       .  A
C186        C187   1.356       .  A
C186        H189   1.076       .  S
C187        C188   1.376       .  A
C187        H190   1.083       .  S
C188        C501   1.476       .  S
N191        C195   1.366       .  A
N191        C192   1.373       .  A
C192        C543   1.495       .  S
C192        C193   1.382       .  A
C193        C194   1.357       .  A
C193        H196   1.077       .  S
C194        C195   1.376       .  A
C194        H197   1.083       .  S
C195        C487   1.479       .  S
N198        C202   1.364       .  A
N198        C199   1.367       .  A
C199        C526   1.494       .  S
C199        C200   1.385       .  A
C200        C201   1.362       .  A
C200        H203   1.082       .  S
C201        C202   1.379       .  A
C201        H204   1.082       .  S
C202        C515   1.487       .  S
C205        N206   1.361       .  A
C205        N210   1.362       .  A
N206        C207   1.364       .  A
C207        N208   1.366       .  A
N208        C209   1.368       .  A
C209        N210   1.360       .  A
C209        N274   1.445       .  S
O211       Cu219   1.991       .  S
O211        C221   1.273       .  A
O212       Cu219   1.988       .  S
O212        C222   1.279       .  A
O213       Cu219   2.026       .  S
O213        C223   1.280       .  A
O214       Cu219   2.015       .  S
O214        C224   1.278       .  A
O215       Cu220   2.055       .  S
O215        C224   1.283       .  A
O216       Cu220   2.062       .  S
O216        C223   1.282       .  A
O217       Cu220   2.073       .  S
O217        C222   1.282       .  A
O218       Cu220   2.057       .  S
O218        C221   1.285       .  A
Cu219      Cu220   2.366       .  S
C221        C431   1.486       .  S
C222        C442   1.501       .  S
C223        C414   1.498       .  S
C224        C456   1.491       .  S
N225        C229   1.363       .  A
N225        C226   1.364       .  A
N225        C295   1.440       .  S
C226        C400   1.479       .  S
C226        C227   1.382       .  A
C227        C228   1.358       .  A
C227        H230   1.080       .  S
C228        C229   1.381       .  A
C228        H231   1.083       .  S
C229        C417   1.479       .  S
N232        C236   1.364       .  A
N232        C233   1.366       .  A
C233        C389   1.505       .  S
C233        C234   1.388       .  A
C234        C235   1.366       .  A
C234        H237   1.082       .  S
C235        C236   1.377       .  A
C235        H238   1.083       .  S
C236        C445   1.486       .  S
N239        C243   1.361       .  A
N239        C240   1.358       .  A
C240        C372   1.498       .  S
C240        C241   1.388       .  A
C241        C242   1.370       .  A
C241        H244   1.068       .  S
C242        C243   1.377       .  A
C242        H245   1.082       .  S
C243        C428   1.480       .  S
N246        C250   1.363       .  A
N246        C247   1.366       .  A
C247        C361   1.498       .  S
C247        C248   1.390       .  A
C248        C249   1.363       .  A
C248        H251   1.083   1_455  S
C249        C250   1.377       .  A
C249        H252   1.083       .  S
C250        C459   1.482       .  S
O253       Cu261   2.022       .  S
O253        C263   1.278       .  A
O254       Cu261   2.029       .  S
O254        C264   1.281       .  A
O255       Cu261   2.018       .  S
O255        C265   1.277       .  A
O256       Cu261   2.022       .  S
O256        C266   1.280       .  A
O257       Cu262   2.037       .  S
O257        C266   1.278       .  A
O258       Cu262   2.022       .  S
O258        C265   1.281       .  A
O259       Cu262   2.043       .  S
O259        C264   1.281       .  A
O260       Cu262   2.052       .  S
O260        C263   1.282       .  A
Cu261      Cu262   2.369       .  S
C263        C330   1.490       .  S
C264        C316   1.497       .  S
C265        C302   1.482       .  S
C266        C347   1.484       .  S
N267        C271   1.358       .  A
N267        C268   1.369       .  A
C268        C403   1.504       .  S
C268        C269   1.390       .  A
C269        C270   1.370       .  A
C269        H272   1.080       .  S
C270        C271   1.375       .  A
C270        H273   1.082       .  S
C271        C305   1.479       .  S
N274        C278   1.369       .  A
N274        C275   1.370       .  A
C275        C386   1.493       .  S
C275        C276   1.383       .  A
C276        C277   1.360       .  A
C276        H279   1.075       .  S
C277        C278   1.377       .  A
C277        H280   1.083       .  S
C278        C333   1.486       .  S
N281        C285   1.359       .  A
N281        C282   1.363       .  A
C282        C375   1.486       .  S
C282        C283   1.386       .  A
C283        C284   1.365       .  A
C283        H286   1.052       .  S
C284        C285   1.376       .  A
C284        H287   1.082       .  S
C285        C319   1.474       .  S
N288        C292   1.364       .  A
N288        C289   1.364       .  A
C289        C358   1.486       .  S
C289        C290   1.384       .  A
C290        C291   1.362       .  A
C290        H293   1.082       .  S
C291        C292   1.379       .  A
C291        H294   1.083       .  S
C292        C344   1.479       .  S
C295        N296   1.361       .  A
C295        N300   1.366       .  A
N296        C297   1.362       .  A
C297        N298   1.371       .  A
N298        C299   1.373       .  A
C299        N300   1.363       .  A
C301        C302   1.399       .  A
C301        C306   1.399       .  A
C301        H308   1.083       .  S
C302        C303   1.414       .  A
C303        N310   1.430       .  S
C303        C304   1.405       .  A
C304        C305   1.405       .  A
C304        H309   1.085       .  S
C305        C306   1.408       .  A
C306        N307   1.425       .  S
N307        O311   1.262       .  A
N307        O312   1.258       .  A
N310        O314   1.261       .  A
N310        O313   1.262       .  A
C315        C316   1.409       .  A
C315        C320   1.405       .  A
C315        H322   1.084       .  S
C316        C317   1.419       .  A
C317        N324   1.426       .  S
C317        C318   1.406       .  A
C318        C319   1.399       .  A
C318        H323   1.083       .  S
C319        C320   1.405       .  A
C320        N321   1.431       .  S
N321        O325   1.262       .  A
N321        O326   1.262       .  A
N324        O328   1.262       .  A
N324        O327   1.261       .  A
C329        C330   1.400       .  A
C329        C334   1.406       .  A
C329        H336   1.084       .  S
C330        C331   1.414       .  A
C331        N338   1.428       .  S
C331        C332   1.408       .  A
C332        C333   1.406       .  A
C332        H337   1.085       .  S
C333        C334   1.412       .  A
C334        N335   1.424       .  S
N335        O339   1.262       .  A
N335        O340   1.259       .  A
N338        O342   1.262       .  A
N338        O341   1.262       .  A
C343        C344   1.404       .  A
C343        C348   1.410       .  A
C343        H350   1.084       .  S
C344        C345   1.415       .  A
C345        N352   1.429       .  S
C345        C346   1.400       .  A
C346        C347   1.398       .  A
C346        H351   1.085       .  S
C347        C348   1.413       .  A
C348        N349   1.427       .  S
N349        O353   1.261       .  A
N349        O354   1.262       .  A
N352        O356   1.261       .  A
N352        O355   1.262       .  A
C357        C358   1.405       .  A
C357        C362   1.407   1_655  A
C357        H364   1.084       .  S
C358        C359   1.415       .  A
C359        N366   1.428       .  S
C359        C360   1.410       .  A
C360        C361   1.409   1_655  A
C360        H365   1.084       .  S
C361        C362   1.414       .  A
C362        N363   1.425       .  S
N363        O367   1.262       .  A
N363        O368   1.262       .  A
N366        O370   1.262       .  A
N366        O369   1.261       .  A
C371        C372   1.405       .  A
C371        C376   1.405   1_455  A
C371        H378   1.084       .  S
C372        C373   1.419       .  A
C373        N380   1.427       .  S
C373        C374   1.409   1_455  A
C374        C375   1.402       .  A
C374        H379   1.084       .  S
C375        C376   1.417       .  A
C376        N377   1.429       .  S
N377        O381   1.262       .  A
N377        O382   1.262       .  A
N380        O384   1.262       .  A
N380        O383   1.262       .  A
C385        C386   1.406       .  A
C385        C390   1.413   1_655  A
C385        H392   1.084       .  S
C386        C387   1.414       .  A
C387        N394   1.427       .  S
C387        C388   1.411   1_655  A
C388        C389   1.409       .  A
C388        H393   1.084       .  S
C389        C390   1.419       .  A
C390        N391   1.426       .  S
N391        O395   1.260       .  A
N391        O396   1.262       .  A
N394        O398   1.262       .  A
N394        O397   1.262       .  A
C399        C400   1.402       .  A
C399        C404   1.409   1_455  A
C399        H406   1.084       .  S
C400        C401   1.421       .  A
C401        N408   1.430       .  S
C401        C402   1.404   1_455  A
C402        C403   1.399       .  A
C402        H407   1.079       .  S
C403        C404   1.419       .  A
C404        N405   1.428       .  S
N405        O409   1.261       .  A
N405        O410   1.262       .  A
N408        O412   1.262       .  A
N408        O411   1.262   1_455  A
C413        C414   1.407       .  A
C413        C418   1.404       .  A
C413        H420   1.084       .  S
C414        C415   1.420       .  A
C415        N422   1.426       .  S
C415        C416   1.411       .  A
C416        C417   1.400       .  A
C416        H421   1.084       .  S
C417        C418   1.409       .  A
C418        N419   1.434       .  S
N419        O423   1.262       .  A
N419        O424   1.263       .  A
N422        O426   1.262       .  A
N422        O425   1.261       .  A
C427        C428   1.402       .  A
C427        C432   1.402       .  A
C427        H434   1.085       .  S
C428        C429   1.412       .  A
C429        N436   1.425       .  S
C429        C430   1.404       .  A
C430        C431   1.401       .  A
C430        H435   1.084       .  S
C431        C432   1.417       .  A
C432        N433   1.431       .  S
N433        O437   1.262       .  A
N433        O438   1.262       .  A
N436        O440   1.258       .  A
N436        O439   1.262       .  A
C441        C442   1.403       .  A
C441        C446   1.391       .  A
C441        H448   1.085       .  S
C442        C443   1.423       .  A
C443        N450   1.429       .  S
C443        C444   1.417       .  A
C444        C445   1.404       .  A
C444        H449   1.081       .  S
C445        C446   1.412       .  A
C446        N447   1.431       .  S
N447        O451   1.261       .  A
N447        O452   1.263       .  A
N450        O454   1.259       .  A
N450        O453   1.261       .  A
C455        C456   1.405       .  A
C455        C460   1.408       .  A
C455        H462   1.084       .  S
C456        C457   1.411       .  A
C457        N464   1.421       .  S
C457        C458   1.405       .  A
C458        C459   1.398       .  A
C458        H463   1.083       .  S
C459        C460   1.413       .  A
C460        N461   1.430       .  S
N461        O465   1.262       .  A
N461        O466   1.261       .  A
N464        O468   1.262       .  A
N464        O467   1.262       .  A
C469        C470   1.399       .  A
C469        C474   1.405       .  A
C469        H476   1.082       .  S
C470        C471   1.410       .  A
C471        N478   1.427       .  S
C471        C472   1.401       .  A
C472        C473   1.403       .  A
C472        H477   1.085       .  S
C473        C474   1.417       .  A
C474        N475   1.430       .  S
N475        O479   1.261       .  A
N475        O480   1.260       .  A
N478        O482   1.261       .  A
N478        O481   1.262       .  A
C483        C484   1.397       .  A
C483        C488   1.400       .  A
C483        H490   1.085       .  S
C484        C485   1.413       .  A
C485        N492   1.428       .  S
C485        C486   1.405       .  A
C486        C487   1.404       .  A
C486        H491   1.085       .  S
C487        C488   1.415       .  A
C488        N489   1.427       .  S
N489        O493   1.259       .  A
N489        O494   1.262       .  A
N492        O496   1.262       .  A
N492        O495   1.261       .  A
C497        C498   1.399       .  A
C497        C502   1.396       .  A
C497        H504   1.085       .  S
C498        C499   1.414       .  A
C499        N506   1.426       .  S
C499        C500   1.408       .  A
C500        C501   1.402       .  A
C500        H505   1.083       .  S
C501        C502   1.414       .  A
C502        N503   1.430       .  S
N503        O507   1.262       .  A
N503        O508   1.262       .  A
N506        O510   1.261       .  A
N506        O509   1.261       .  A
C511        C512   1.402       .  A
C511        C516   1.396       .  A
C511        H518   1.085       .  S
C512        C513   1.419       .  A
C513        N520   1.427       .  S
C513        C514   1.415       .  A
C514        C515   1.404       .  A
C514        H519   1.083       .  S
C515        C516   1.414       .  A
C516        N517   1.432       .  S
N517        O521   1.262       .  A
N517        O522   1.262       .  A
N520        O524   1.262       .  A
N520        O523   1.262       .  A
C525        C526   1.406       .  A
C525        C530   1.411   1_565  A
C525        H532   1.083       .  S
C526        C527   1.413       .  A
C527        N534   1.426       .  S
C527        C528   1.412   1_565  A
C528        C529   1.412       .  A
C528        H533   1.084       .  S
C529        C530   1.414       .  A
C530        N531   1.421       .  S
N531        O535   1.262       .  A
N531        O536   1.262       .  A
N534        O538   1.262       .  A
N534        O537   1.261       .  A
C539        C540   1.407       .  A
C539        C544   1.412   1_545  A
C539        H546   1.084       .  S
C540        C541   1.419       .  A
C541        N548   1.427       .  S
C541        C542   1.415   1_545  A
C542        C543   1.407       .  A
C542        H547   1.085       .  S
C543        C544   1.415       .  A
C544        N545   1.427       .  S
N545        O549   1.262       .  A
N545        O550   1.261       .  A
N548        O552   1.262       .  A
N548        O551   1.260       .  A
C553        C554   1.403       .  A
C553        C558   1.411   1_565  A
C553        H560   1.085       .  S
C554        C555   1.420       .  A
C555        N562   1.429       .  S
C555        C556   1.408   1_565  A
C556        C557   1.405       .  A
C556        H561   1.085       .  S
C557        C558   1.420       .  A
C558        N559   1.425       .  S
N559        O563   1.260       .  A
N559        O564   1.262       .  A
N562        O566   1.262       .  A
N562        O565   1.262       .  A
C567        C568   1.400       .  A
C567        C572   1.411   1_565  A
C567        H574   1.084       .  S
C568        C569   1.412       .  A
C569        N576   1.429       .  S
C569        C570   1.415   1_565  A
C570        C571   1.410       .  A
C570        H575   1.083       .  S
C571        C572   1.424       .  A
C572        N573   1.428       .  S
N573        O577   1.262       .  A
N573        O578   1.262       .  A
N576        O580   1.262       .  A
N576        O579   1.262       .  A
C581        C582   1.398       .  A
C581        C586   1.404       .  A
C581        H588   1.085       .  S
C582        C583   1.411       .  A
C583        N590   1.424       .  S
C583        C584   1.411       .  A
C584        C585   1.405       .  A
C584        H589   1.084       .  S
C585        C586   1.419       .  A
C586        N587   1.430       .  S
N587        O591   1.262       .  A
N587        O592   1.261       .  A
N590        O594   1.261       .  A
N590        O593   1.262       .  A
C595        C596   1.399       .  A
C595        C600   1.389       .  A
C595        H602   1.085       .  S
C596        C597   1.412       .  A
C597        N604   1.429       .  S
C597        C598   1.417       .  A
C598        C599   1.409       .  A
C598        H603   1.079       .  S
C599        C600   1.407       .  A
C600        N601   1.426       .  S
N601        O605   1.262       .  A
N601        O606   1.262       .  A
N604        O608   1.259       .  A
N604        O607   1.262       .  A
C609        C610   1.399       .  A
C609        C614   1.388       .  A
C609        H616   1.085       .  S
C610        C611   1.414       .  A
C611        N618   1.427       .  S
C611        C612   1.413       .  A
C612        C613   1.406       .  A
C612        H617   1.082       .  S
C613        C614   1.409       .  A
C614        N615   1.426       .  S
N615        O619   1.262       .  A
N615        O620   1.262       .  A
N618        O622   1.260       .  A
N618        O621   1.262       .  A
C623        C624   1.402       .  A
C623        C628   1.406       .  A
C623        H630   1.084       .  S
C624        C625   1.409       .  A
C625        N632   1.423       .  S
C625        C626   1.408       .  A
C626        C627   1.404       .  A
C626        H631   1.083       .  S
C627        C628   1.416       .  A
C628        N629   1.430       .  S
N629        O633   1.262       .  A
N629        O634   1.262       .  A
N632        O636   1.262       .  A
N632        O635   1.262       .  A
C637        C638   1.395       .  A
C637        C642   1.402       .  A
C637        H644   1.084       .  S
C638        C639   1.409       .  A
C639        N646   1.426       .  S
C639        C640   1.404       .  A
C640        C641   1.404       .  A
C640        H645   1.085       .  S
C641        C642   1.418       .  A
C642        N643   1.426       .  S
N643        O647   1.262       .  A
N643        O648   1.260       .  A
N646        O650   1.261       .  A
N646        O649   1.262       .  A
C651        C652   1.396       .  A
C651        C656   1.402       .  A
C651        H658   1.085       .  S
C652        C653   1.414       .  A
C653        N660   1.427       .  S
C653        C654   1.408       .  A
C654        C655   1.404       .  A
C654        H659   1.084       .  S
C655        C656   1.416       .  A
C656        N657   1.426       .  S
N657        O661   1.258       .  A
N657        O662   1.262       .  A
N660        O664   1.262       .  A
N660        O663   1.261       .  A
C665        C666   1.401       .  A
C665        C670   1.399       .  A
C665        H672   1.084       .  S
C666        C667   1.418       .  A
C667        N674   1.428       .  S
C667        C668   1.412       .  A
C668        C669   1.404       .  A
C668        H673   1.084       .  S
C669        C670   1.410       .  A
C670        N671   1.430       .  S
N671        O675   1.262       .  A
N671        O676   1.262       .  A
N674        O678   1.262       .  A
N674        O677   1.262       .  A
C679        C680   1.403       .  A
C679        C684   1.406       .  A
C679        H686   1.085       .  S
C680        C681   1.413       .  A
C681        N688   1.428       .  S
C681        C682   1.405       .  A
C682        C683   1.404       .  A
C682        H687   1.085       .  S
C683        C684   1.413       .  A
C684        N685   1.427       .  S
N685        O689   1.261       .  A
N685        O690   1.262       .  A
N688        O692   1.262       .  A
N688        O691   1.261       .  A
C693        C694   1.404       .  A
C693        C698   1.405   1_556  A
C693        H700   1.083       .  S
C694        C695   1.417       .  A
C695        N702   1.429       .  S
C695        C696   1.413   1_556  A
C696        C697   1.411       .  A
C696        H701   1.084       .  S
C697        C698   1.409       .  A
C698        N699   1.422       .  S
N699        O703   1.262       .  A
N699        O704   1.262       .  A
N702        O706   1.262       .  A
N702        O705   1.261       .  A
C707        C708   1.405       .  A
C707        C712   1.413   1_556  A
C707        H714   1.085       .  S
C708        C709   1.417       .  A
C709        N716   1.428       .  S
C709        C710   1.410   1_556  A
C710        C711   1.407       .  A
C710        H715   1.084       .  S
C711        C712   1.420       .  A
C712        N713   1.427       .  S
N713        O717   1.262       .  A
N713        O718   1.262       .  A
N716        O720   1.262       .  A
N716        O719   1.262       .  A
C721        C722   1.405       .  A
C721        C726   1.408   1_554  A
C721        H728   1.084       .  S
C722        C723   1.416       .  A
C723        N730   1.427       .  S
C723        C724   1.410   1_554  A
C724        C725   1.403       .  A
C724        H729   1.084       .  S
C725        C726   1.419       .  A
C726        N727   1.430       .  S
N727        O731   1.262       .  A
N727        O732   1.261       .  A
N730        O734   1.261       .  A
N730        O733   1.261       .  A
C735        C736   1.404   1_556  A
C735        C740   1.412       .  A
C735        H742   1.084   1_556  S
C736        C737   1.413       .  A
C737        N744   1.424       .  S
C737        C738   1.409   1_554  A
C738        C739   1.406       .  A
C738        H743   1.085       .  S
C739        C740   1.420       .  A
C740        N741   1.425       .  S
N741        O745   1.262       .  A
N741        O746   1.262       .  A
N744        O748   1.258       .  A
N744        O747   1.262       .  A
C749        C750   1.395       .  A
C749        C754   1.403       .  A
C749        H756   1.082       .  S
C750        C751   1.411       .  A
C751        N758   1.421       .  S
C751        C752   1.405       .  A
C752        C753   1.401       .  A
C752        H757   1.085       .  S
C753        C754   1.415       .  A
C754        N755   1.426       .  S
N755        O759   1.259       .  A
N755        O760   1.262       .  A
N758        O762   1.262       .  A
N758        O761   1.261       .  A
C763        C764   1.395       .  A
C763        C768   1.404       .  A
C763        H770   1.082       .  S
C764        C765   1.410       .  A
C765        N772   1.422       .  S
C765        C766   1.401       .  A
C766        C767   1.400       .  A
C766        H771   1.083       .  S
C767        C768   1.416       .  A
C768        N769   1.425       .  S
N769        O773   1.262       .  A
N769        O774   1.260       .  A
N772        O776   1.261       .  A
N772        O775   1.262       .  A
C777        C778   1.401       .  A
C777        C782   1.399       .  A
C777        H784   1.085       .  S
C778        C779   1.417       .  A
C779        N786   1.428       .  S
C779        C780   1.412       .  A
C780        C781   1.405       .  A
C780        H785   1.084       .  S
C781        C782   1.412       .  A
C782        N783   1.429       .  S
N783        O787   1.261       .  A
N783        O788   1.262       .  A
N786        O790   1.261       .  A
N786        O789   1.261       .  A
C791        C792   1.404       .  A
C791        C796   1.412       .  A
C791        H798   1.084       .  S
C792        C793   1.414       .  A
C793        N800   1.430       .  S
C793        C794   1.405       .  A
C794        C795   1.403       .  A
C794        H799   1.084       .  S
C795        C796   1.415       .  A
C796        N797   1.425       .  S
N797        O801   1.261       .  A
N797        O802   1.262       .  A
N800        O804   1.261       .  A
N800        O803   1.262       .  A
