geometry optimzed in LAMMPS
_audit_creation_date              2020-12-01 
_audit_creation_method            'lammps2cif' 
_symmetry_space_group_name_H-M    'P1' 
_symmetry_Int_Tables_number       1 
_symmetry_cell_setting            triclinic 
loop_ 
_symmetry_equiv_pos_as_xyz 
  x,y,z 
_cell_length_a                    25.15677273 
_cell_length_b                    29.960937692116698 
_cell_length_c                    31.633555573156254 
_cell_angle_alpha                 89.99925765082735 
_cell_angle_beta                  95.18356982612228 
_cell_angle_gamma                 89.96483740093996 
loop_ 
_atom_site_label 
_atom_site_type_symbol 
_atom_site_fract_x 
_atom_site_fract_y 
_atom_site_fract_z 
_atom_site_charge 
C1          C  0.35363116  0.32577202  0.05249622     0.88700
C2          C  0.31533389  0.36325567  0.06248938    -0.51600
C3          C  0.27143061  0.36691028  0.03412672     0.11600
C4          C  0.27188851  0.33487016  0.99644831     0.22500
C5          C  0.31756522  0.28373523  0.04750410    -0.52300
C6          C  0.27311125  0.28864060  0.01842352     0.11700
C7          C  0.36902878  0.33587984  0.00814965    -0.51800
C8          C  0.32692063  0.34154873  0.97874100     0.12300
H9          H  0.31792903  0.37968497  0.09327658     0.16800
H10         H  0.23799226  0.34077937  0.97221947     0.02500
H11         H  0.32565133  0.25433242  0.06691227     0.17100
H12         H  0.40985192  0.34315698  0.00161823     0.16900
In13       In  0.08229831  0.38957135  0.16334785     1.36900
C14         C  0.14624460  0.37848797  0.10285590     0.79800
O15         O  0.06123412  0.46132112  0.16917635    -0.58700
O16         O  0.14330332  0.44605075  0.16875020    -0.49600
C17         C  0.98996315  0.35368414  0.12817260     0.72400
O18         O  0.03077637  0.33063717  0.13912431    -0.44500
C19         C  0.09423430  0.36201323  0.24348370     0.77100
O20         O  0.10200876  0.39814155  0.09636207    -0.56300
O21         O  0.07063240  0.39765798  0.23206523    -0.46400
O22         O  0.15629152  0.36181314  0.13941980    -0.52700
C23         C  0.10804322  0.47602022  0.16691195     0.87300
O24         O  0.99545028  0.39471154  0.13644088    -0.54600
O25         O  0.11180098  0.33971820  0.21389609    -0.57900
C26         C  0.36618021  0.02673947  0.87426103     0.32200
C27         C  0.35666929  0.44357169  0.90316701     0.32200
C28         C  0.37413277  0.49330531  0.84370745    -0.04000
C29         C  0.40722701  0.00844397  0.90777249    -0.04800
C30         C  0.31245220  0.01740495  0.89387942    -0.04700
C31         C  0.36604631  0.44957494  0.85627600    -0.04000
C32         C  0.40401180  0.46827534  0.92793881    -0.04800
C33         C  0.30972580  0.47464485  0.90806628    -0.04700
C34         C  0.35926221  0.42427024  0.81977524    -0.30100
N35         N  0.36424501  0.45145373  0.78586870     0.16400
C36         C  0.37338535  0.49369525  0.80016137    -0.30100
H37         H  0.37207546  0.02280182  0.77635044     0.18400
C38         C  0.42041587  0.47039864  0.97136602    -0.29000
N39         N  0.44235305  0.00455785  0.97353721     0.15200
C40         C  0.43414892  0.03152720  0.94008757    -0.29000
C41         C  0.27693670  0.47307744  0.94033601    -0.29300
N42         N  0.26012649  0.01138401  0.94792076     0.15700
H43         H  0.26905789  0.44376642  0.95884149     0.18300
C44         C  0.28599936  0.04071316  0.92405978    -0.29300
H45         H  0.29097411  0.07581943  0.93149529     0.18300
H46         H  0.44127370  0.06718626  0.94116494     0.18300
H47         H  0.34869752  0.38927937  0.81782445     0.18400
H48         H  0.41273453  0.44551338  0.99486492     0.18300
C49         C  0.14982192  0.21567488  0.97645834     0.88700
C50         C  0.18461117  0.25857506  0.98154273    -0.51600
C51         C  0.22728588  0.25543832  0.01255044     0.11600
C52         C  0.22797002  0.21012438  0.03608601     0.22500
C53         C  0.19002539  0.17852732  0.96956713    -0.52300
C54         C  0.23247192  0.17699548  0.99964264     0.11700
C55         C  0.13143860  0.20686724  0.02007013    -0.51800
C56         C  0.17156434  0.20335649  0.05138588     0.12300
H57         H  0.17774084  0.28689199  0.96048586     0.16800
H58         H  0.26009663  0.20556348  0.06204941     0.02500
H59         H  0.19029900  0.16139695  0.93926362     0.17100
H60         H  0.09010683  0.19961469  0.02510865     0.16900
In61       In  0.41669316  0.15820845  0.86765351     1.36900
C62         C  0.35841064  0.17125888  0.93166153     0.79800
O63         O  0.38740141  0.20972288  0.81848791    -0.58700
O64         O  0.42665459  0.15169382  0.79823839    -0.49600
C65         C  0.01275751  0.18876725  0.90051246     0.72400
O66         O  0.47342550  0.21396794  0.89073755    -0.44500
C67         C  0.38110280  0.07409449  0.86346836     0.77100
O68         O  0.40261349  0.15126405  0.93620991    -0.56300
O69         O  0.42890485  0.08477599  0.85844170    -0.46400
O70         O  0.34624141  0.18818031  0.89541152    -0.52700
C71         C  0.40346472  0.18786745  0.78795490     0.87300
O72         O  0.50383206  0.14804354  0.89210932    -0.54600
O73         O  0.34995689  0.10674007  0.86531187    -0.57900
C74         C  0.12278814  0.02138319  0.15538770     0.32200
C75         C  0.13672635  0.10716504  0.13022962     0.32200
C76         C  0.14155961  0.05436603  0.19079080    -0.04000
C77         C  0.16346914  0.02835913  0.12154226    -0.04800
C78         C  0.07275210  0.04472139  0.13515586    -0.04700
C79         C  0.14914272  0.09821281  0.17764307    -0.04000
C80         C  0.17093293  0.07282406  0.11033690    -0.04800
C81         C  0.07961805  0.08855785  0.12038633    -0.04700
C82         C  0.16030983  0.12376059  0.21333749    -0.30100
N83         N  0.15876440  0.09695328  0.24778158     0.16400
C84         C  0.14688322  0.05462656  0.23454006    -0.30100
H85         H  0.14077127  0.02662978  0.25517918     0.18400
C86         C  0.19453321  0.07407034  0.07307299    -0.29000
N87         N  0.20162492  0.03207282  0.06014776     0.15200
C88         C  0.18166512  0.00351808  0.08836499    -0.29000
C89         C  0.04397295  0.09219211  0.08427243    -0.29300
N90         N  0.01432717  0.05436604  0.07986672     0.15700
H91         H  0.04511423  0.11751580  0.05994823     0.18300
C92         C  0.03190004  0.02552384  0.11009026    -0.29300
H93         H  0.01246419  0.50013930  0.11563040     0.18300
H94         H  0.17709398  0.47052960  0.08472410     0.18300
H95         H  0.16595478  0.15957752  0.21434405     0.17200
H96         H  0.20126467  0.10339986  0.05434720     0.18300
C97         C  0.39738630  0.07607625  0.47897279     0.88700
C98         C  0.43031786  0.11595825  0.46660135    -0.51600
C99         C  0.47565683  0.12278484  0.49240372     0.11600
C100        C  0.48173967  0.09129330  0.53068105     0.22500
C101        C  0.43762518  0.03661309  0.48263182    -0.52300
C102        C  0.48329120  0.04478620  0.50959336     0.11700
C103        C  0.38460529  0.08570019  0.52416358    -0.51800
C104        C  0.42830772  0.09441955  0.55131718     0.12300
H105        H  0.42354693  0.13178545  0.43559324     0.16800
H106        H  0.01658996  0.09996503  0.55321364     0.02500
H107        H  0.43097518  0.00642567  0.46409752     0.17100
H108        H  0.34409676  0.09056257  0.53272793     0.16900
In109      In  0.17301599  0.14240235  0.36945982     1.36900
C110        C  0.09744584  0.13252002  0.42026321     0.79800
O111        O  0.18245581  0.20769061  0.40169602    -0.58700
O112        O  0.14157218  0.20864405  0.34038865    -0.49600
C113        C  0.26261393  0.10273875  0.40306732     0.72400
O114        O  0.21835581  0.08293440  0.39815164    -0.44500
C115        C  0.16457384  0.11217707  0.29083013     0.77100
O116        O  0.14555364  0.13696231  0.43367824    -0.56300
O117        O  0.19078832  0.14694139  0.30177290    -0.46400
O118        O  0.08790237  0.12857624  0.38058092    -0.52700
C119        C  0.15662033  0.23042407  0.37336734     0.87300
O120        O  0.26204915  0.14214705  0.38868001    -0.54600
O121        O  0.14312409  0.09236711  0.32024340    -0.57900
C122        C  0.38656150  0.28093072  0.65327279     0.32200
C123        C  0.40249769  0.19638945  0.62766602     0.32200
C124        C  0.38245010  0.24508826  0.68726662    -0.04000
C125        C  0.34748598  0.26465986  0.61706259    -0.04800
C126        C  0.44181067  0.27213142  0.63588986    -0.04700
C127        C  0.39082734  0.20153456  0.67409646    -0.04000
C128        C  0.35648687  0.22153629  0.60196315    -0.04800
C129        C  0.45004632  0.22724175  0.62463312    -0.04700
C130        C  0.39975152  0.17591884  0.71019170    -0.30100
N131        N  0.39525983  0.20234607  0.74460665     0.16400
C132        C  0.38530009  0.24480703  0.73104307    -0.30100
H133        H  0.38413219  0.27366901  0.75150127     0.18400
C134        C  0.34266053  0.22408827  0.55821644    -0.29000
N135        N  0.32285223  0.26537564  0.54848476     0.15200
C136        C  0.32585132  0.28995356  0.58378337    -0.29000
C137        C  0.48488273  0.22634414  0.59373264    -0.29300
N138        N  0.49744243  0.26826335  0.58395236     0.15700
H139        H  0.49358430  0.19752856  0.57484456     0.18300
C140        C  0.47031370  0.29663911  0.60781912    -0.29300
H141        H  0.46630570  0.33207398  0.60176273     0.18300
H142        H  0.31954720  0.32565888  0.58404889     0.18300
H143        H  0.41152994  0.14113983  0.71145494     0.18400
H144        H  0.35170664  0.19937395  0.53493277     0.18300
C145        C  0.10954596  0.47185132  0.55359164     0.88700
C146        C  0.07517744  0.02043390  0.54472086    -0.51600
C147        C  0.03197309  0.01456427  0.51461662     0.11600
C148        C  0.03152776  0.46474431  0.49414482     0.22500
C149        C  0.07143525  0.43296939  0.55991060    -0.52300
C150        C  0.02871914  0.43072652  0.53012857     0.11700
C151        C  0.12815184  0.46494510  0.50979089    -0.51800
C152        C  0.08815523  0.46058058  0.47852582     0.12300
H153        H  0.08014198  0.04906023  0.56559252     0.16800
H154        H  0.49950595  0.45961327  0.46825512     0.02500
H155        H  0.07226555  0.41520330  0.58995524     0.17100
H156        H  0.16980406  0.45943428  0.50453374     0.16900
In157      In  0.34140347  0.41269584  0.66142399     1.36900
C158        C  0.40246511  0.42487464  0.59856034     0.79800
O159        O  0.37098706  0.46200880  0.71224462    -0.58700
O160        O  0.33275291  0.40268576  0.73069068    -0.49600
C161        C  0.24631582  0.44541109  0.62915209     0.72400
O162        O  0.28499160  0.47016373  0.64194404    -0.44500
C163        C  0.37253774  0.32801807  0.66480961     0.77100
O164        O  0.35703192  0.40718408  0.59283559    -0.56300
O165        O  0.32472481  0.33976052  0.66847723    -0.46400
O166        O  0.41454547  0.44043186  0.63533813    -0.52700
C167        C  0.35592179  0.43851004  0.74211940     0.87300
O168        O  0.25539943  0.40423123  0.63420264    -0.54600
O169        O  0.40527681  0.35970447  0.66469933    -0.57900
C170        C  0.12938968  0.36540860  0.40216234     0.32200
C171        C  0.14539055  0.27922799  0.38060810     0.32200
C172        C  0.10646842  0.35203442  0.35731248    -0.04000
C173        C  0.18872196  0.35081489  0.40486861    -0.04800
C174        C  0.10534199  0.33116459  0.42960417    -0.04700
C175        C  0.11488506  0.30742334  0.34579056    -0.04000
C176        C  0.19653687  0.30681778  0.39048376    -0.04800
C177        C  0.11337566  0.28694931  0.41974153    -0.04700
C178        C  0.11264688  0.30672416  0.30193034    -0.30100
N179        N  0.10025878  0.34827045  0.28700833     0.16400
C180        C  0.09775373  0.37619288  0.32041589    -0.30100
H181        H  0.09455635  0.41217075  0.31805796     0.18400
C182        C  0.24361249  0.29125144  0.41027915    -0.29000
N183        N  0.26168483  0.32023590  0.44031596     0.15200
C184        C  0.22856303  0.35620512  0.43814837    -0.29000
C185        C  0.09082413  0.26241793  0.45099633    -0.29300
N186        N  0.07003211  0.29159903  0.47826995     0.15700
H187        H  0.09053478  0.22651742  0.45413713     0.18300
C188        C  0.07884200  0.33340937  0.46541048    -0.29300
H189        H  0.06780428  0.36322833  0.48174691     0.18300
H190        H  0.22722125  0.38043928  0.46343289     0.18300
H191        H  0.12267371  0.27879778  0.28245948     0.18400
H192        H  0.25754162  0.25712212  0.40955464     0.18300
C193        C  0.11622774  0.41076805  0.41636477    -0.11100
C194        C  0.10038210  0.43912437  0.43948019    -0.12600
C195        C  0.19644829  0.46241432  0.60833562    -0.11100
C196        C  0.15563968  0.47171594  0.58645568    -0.12600
C197        C  0.47785416  0.42219067  0.54630127    -0.11100
C198        C  0.44003394  0.42333667  0.56709342    -0.12600
C199        C  0.04493481  0.28253256  0.51519839    -0.11100
C200        C  0.52356718  0.27798825  0.54765005    -0.12600
C201        C  0.30786680  0.28428100  0.50871784    -0.11100
C202        C  0.28986297  0.30364947  0.47721554    -0.12600
C203        C  0.42176408  0.12059488  0.58885300    -0.11100
C204        C  0.41213091  0.15102373  0.61202431    -0.12600
C205        C  0.34891651  0.07277658  0.44884747    -0.11100
C206        C  0.30938457  0.08293239  0.42592634    -0.12600
C207        C  0.05667732  0.13401514  0.44844918    -0.11100
C208        C  0.02149073  0.13401032  0.47148064    -0.12600
C209        C  0.14738932  0.15240152  0.11432492    -0.11100
C210        C  0.16070588  0.18100272  0.09034826    -0.12600
C211        C  0.10376887  0.21450188  0.94342735    -0.11100
C212        C  0.06308707  0.20480266  0.92148652    -0.12600
C213        C  0.28388142  0.16950615  0.98434542    -0.11100
C214        C  0.32172620  0.17055425  0.96367320    -0.12600
C215        C  0.23822525  0.01935519  0.98651276    -0.11100
C216        C  0.22055415  0.02286118  0.02064963    -0.12600
C217        C  0.46369553  0.02090478  0.01261120    -0.11100
C218        C  0.98538531  0.03879123  0.04322843    -0.12600
C219        C  0.33510448  0.36765220  0.94130404    -0.11100
C220        C  0.34653783  0.39798339  0.91849433    -0.12600
C221        C  0.40124355  0.32531716  0.08406593    -0.11100
C222        C  0.44156309  0.33539021  0.10628616    -0.12600
C223        C  0.18437455  0.37805426  0.07205904    -0.11100
C224        C  0.22185092  0.37706064  0.05109951    -0.12600
C225        C  0.35549789  0.82648425  0.05157714     0.88700
C226        C  0.31607175  0.86247694  0.06295457    -0.51600
C227        C  0.27134823  0.86535063  0.03539549     0.11600
C228        C  0.27229835  0.83448278  0.99687702     0.22500
C229        C  0.32109995  0.78349201  0.04622232    -0.52300
C230        C  0.27582417  0.78790104  0.01798279     0.11700
C231        C  0.36945289  0.83833983  0.00714461    -0.51800
C232        C  0.32644414  0.84300984  0.97836024     0.12300
H233        H  0.31859822  0.87789434  0.09421762     0.16800
H234        H  0.23766727  0.84017463  0.97329625     0.02500
H235        H  0.33050489  0.75391698  0.06511417     0.17100
H236        H  0.40982226  0.84625338  0.99989268     0.16900
In237      In  0.08327052  0.88692267  0.16585253     1.36900
C238        C  0.14713444  0.87133948  0.10634319     0.79800
O239        O  0.06531738  0.95984486  0.17422954    -0.58700
O240        O  0.14485764  0.94248088  0.16481047    -0.49600
C241        C  0.99061051  0.85357576  0.12937825     0.72400
O242        O  0.02843128  0.82917908  0.14453468    -0.44500
C243        C  0.09350543  0.85872430  0.24602476     0.77100
O244        O  0.10099770  0.88715476  0.09810596    -0.56300
O245        O  0.07129500  0.89499594  0.23460451    -0.46400
O246        O  0.15917367  0.85993548  0.14451662    -0.52700
C247        C  0.11146765  0.97338031  0.16733531     0.87300
O248        O  0.99887002  0.89484346  0.13460290    -0.54600
O249        O  0.11055464  0.83611190  0.21642380    -0.57900
C250        C  0.37198368  0.52863202  0.87825181     0.32200
C251        C  0.35111080  0.94080983  0.89768477     0.32200
C252        C  0.36729755  0.99215406  0.83898242    -0.04000
C253        C  0.41254036  0.51159296  0.91296648    -0.04800
C254        C  0.31779410  0.51981257  0.89747373    -0.04700
C255        C  0.35929194  0.94798339  0.85071720    -0.04000
C256        C  0.39926525  0.96474239  0.92153499    -0.04800
C257        C  0.30461430  0.97206069  0.90391707    -0.04700
C258        C  0.35502319  0.92323119  0.81395456    -0.30100
N259        N  0.36100320  0.95122372  0.78083055     0.16400
C260        C  0.36883957  0.99331988  0.79575670    -0.30100
H261        H  0.37550166  0.52288595  0.78020615     0.18400
C262        C  0.42005745  0.96416885  0.96385695    -0.29000
N263        N  0.44124800  0.51148894  0.98068036     0.15200
C264        C  0.43627088  0.53642326  0.94566200    -0.29000
C265        C  0.27148956  0.96990584  0.93593139    -0.29300
N266        N  0.26611722  0.51468269  0.95211504     0.15700
H267        H  0.26368231  0.94037044  0.95412911     0.18300
C268        C  0.29189732  0.54359340  0.92777405    -0.29300
H269        H  0.29714958  0.57869839  0.93483679     0.18300
H270        H  0.44287977  0.57209748  0.94545812     0.18300
H271        H  0.34599985  0.88798144  0.81120943     0.18400
H272        H  0.41462061  0.93809415  0.98674468     0.18300
C273        C  0.15140242  0.71506744  0.97956162     0.88700
C274        C  0.18694680  0.75745012  0.98301793    -0.51600
C275        C  0.23020072  0.75461769  0.01341816     0.11600
C276        C  0.23086770  0.70999548  0.03811750     0.22500
C277        C  0.19059965  0.67704400  0.97295032    -0.52300
C278        C  0.23391636  0.67584195  0.00224992     0.11700
C279        C  0.13399502  0.70785199  0.02372825    -0.51800
C280        C  0.17477579  0.70454380  0.05456109     0.12300
H281        H  0.17992268  0.78523285  0.96134739     0.16800
H282        H  0.26361010  0.70584000  0.06367756     0.02500
H283        H  0.18969121  0.65909213  0.94300182     0.17100
H284        H  0.09271381  0.70151361  0.02957875     0.16900
In285      In  0.41829738  0.66042846  0.86841314     1.36900
C286        C  0.35855275  0.67161753  0.93224498     0.79800
O287        O  0.39018950  0.71275024  0.81905469    -0.58700
O288        O  0.42504780  0.65307208  0.79825614    -0.49600
C289        C  0.01424724  0.69057688  0.90229891     0.72400
O290        O  0.47436992  0.71569722  0.89427199    -0.44500
C291        C  0.38597565  0.57571511  0.86617942     0.77100
O292        O  0.40396449  0.65372933  0.93712092    -0.56300
O293        O  0.43366585  0.58713605  0.86164983    -0.46400
O294        O  0.34565130  0.68764090  0.89573472    -0.52700
C295        C  0.40350955  0.68995708  0.78810414     0.87300
O296        O  0.50585464  0.65035800  0.89137071    -0.54600
O297        O  0.35355295  0.60767419  0.86614180    -0.57900
C298        C  0.11950433  0.52440258  0.15649562     0.32200
C299        C  0.13639776  0.61036011  0.13339822     0.32200
C300        C  0.14589797  0.55458169  0.19168966    -0.04000
C301        C  0.15529549  0.53115598  0.11926817    -0.04800
C302        C  0.06884829  0.55106958  0.14158741    -0.04700
C303        C  0.15486725  0.59856769  0.17949541    -0.04000
C304        C  0.16401081  0.57537281  0.10900766    -0.04800
C305        C  0.07736881  0.59508102  0.12742145    -0.04700
C306        C  0.16916175  0.62267390  0.21565030    -0.30100
N307        N  0.16803729  0.59510505  0.24957699     0.16400
C308        C  0.15323371  0.55359899  0.23549374    -0.30100
H309        H  0.14495067  0.52572853  0.25565628     0.18400
C310        C  0.19187118  0.57708589  0.07398286    -0.29000
N311        N  0.20050082  0.53515976  0.06150084     0.15200
C312        C  0.17836538  0.50629491  0.08840665    -0.29000
C313        C  0.03989099  0.60072334  0.09249541    -0.29300
N314        N  0.00760088  0.56439849  0.08826370     0.15700
H315        H  0.04211171  0.62584750  0.06809962     0.18300
C316        C  0.02470780  0.53467562  0.11782811    -0.29300
H317        H  0.02229418  0.99029104  0.10865474     0.18300
H318        H  0.17694719  0.96795176  0.08351481     0.18300
H319        H  0.17501816  0.65843824  0.21747757     0.17200
H320        H  0.20264087  0.60668257  0.05714736     0.18300
C321        C  0.39884810  0.57361477  0.48141045     0.88700
C322        C  0.43381342  0.61156175  0.46759873    -0.51600
C323        C  0.47910729  0.61810117  0.49356446     0.11600
C324        C  0.48333000  0.58823492  0.53305759     0.22500
C325        C  0.43682661  0.53300810  0.48688098    -0.52300
C326        C  0.48265807  0.54083508  0.51358199     0.11700
C327        C  0.38596247  0.58587646  0.52592501    -0.51800
C328        C  0.42968079  0.59427499  0.55308063     0.12300
H329        H  0.42801116  0.62620979  0.43602005     0.16800
H330        H  0.01864036  0.59635769  0.55545034     0.02500
H331        H  0.42868997  0.50224854  0.46954182     0.17100
H332        H  0.34553392  0.59236317  0.53396045     0.16900
In333      In  0.17742541  0.64103166  0.37147363     1.36900
C334        C  0.10206616  0.62946379  0.42218475     0.79800
O335        O  0.19101310  0.70715706  0.40245890    -0.58700
O336        O  0.14171573  0.70675421  0.34480336    -0.49600
C337        C  0.26526909  0.60061082  0.40578720     0.72400
O338        O  0.22041487  0.58171245  0.40179644    -0.44500
C339        C  0.17292235  0.61001724  0.29281338     0.77100
O340        O  0.15027790  0.63319811  0.43565873    -0.56300
O341        O  0.19889502  0.64468703  0.30442703    -0.46400
O342        O  0.09230709  0.62753073  0.38237187    -0.52700
C343        C  0.16107255  0.72929768  0.37611205     0.87300
O344        O  0.26602946  0.63963529  0.39056743    -0.54600
O345        O  0.14984464  0.59063299  0.32156478    -0.57900
C346        C  0.38447949  0.78214666  0.65262935     0.32200
C347        C  0.40156172  0.69772159  0.62758025     0.32200
C348        C  0.37941420  0.74642468  0.68672970    -0.04000
C349        C  0.34634032  0.76578648  0.61582771    -0.04800
C350        C  0.44026994  0.77349274  0.63616135    -0.04700
C351        C  0.38830597  0.70282802  0.67376712    -0.04000
C352        C  0.35625595  0.72276431  0.60077658    -0.04800
C353        C  0.44915029  0.72862266  0.62532320    -0.04700
C354        C  0.39840076  0.67762293  0.71013719    -0.30100
N355        N  0.39411109  0.70414790  0.74455495     0.16400
C356        C  0.38333086  0.74640955  0.73064227    -0.30100
H357        H  0.38253072  0.77547051  0.75090710     0.18400
C358        C  0.34522771  0.72602664  0.55668828    -0.29000
N359        N  0.32593631  0.76742892  0.54668543     0.15200
C360        C  0.32631462  0.79137817  0.58218959    -0.29000
C361        C  0.48427918  0.72783799  0.59460226    -0.29300
N362        N  0.49637003  0.76974516  0.58451092     0.15700
H363        H  0.49354929  0.69895706  0.57599188     0.18300
C364        C  0.46872942  0.79804281  0.60803440    -0.29300
H365        H  0.46436719  0.83339260  0.60168424     0.18300
H366        H  0.31982452  0.82705637  0.58254284     0.18300
H367        H  0.41121989  0.64311614  0.71150443     0.18400
H368        H  0.35602914  0.70174606  0.53359577     0.18300
C369        C  0.11372872  0.97986369  0.54923668     0.88700
C370        C  0.07260872  0.51346064  0.54949378    -0.51600
C371        C  0.03014300  0.50943497  0.51854905     0.11600
C372        C  0.03448757  0.96920212  0.49135145     0.22500
C373        C  0.07736966  0.94030872  0.55729627    -0.52300
C374        C  0.03422537  0.93604037  0.52823360     0.11700
C375        C  0.13129974  0.97229921  0.50521729    -0.51800
C376        C  0.09072919  0.96568300  0.47480324     0.12300
H377        H  0.07781960  0.54141864  0.57117694     0.16800
H378        H  0.50195575  0.96261069  0.46609082     0.02500
H379        H  0.07979970  0.92321986  0.58775679     0.17100
H380        H  0.17287447  0.96705211  0.49953005     0.16900
In381      In  0.34277544  0.91474242  0.65654318     1.36900
C382        C  0.40769798  0.92545606  0.59608142     0.79800
O383        O  0.37173452  0.96278034  0.70813734    -0.58700
O384        O  0.33051685  0.90398016  0.72458227    -0.49600
C385        C  0.25031346  0.95129226  0.62318804     0.72400
O386        O  0.28951324  0.97442122  0.63798452    -0.44500
C387        C  0.37081178  0.82959581  0.66309053     0.77100
O388        O  0.36251486  0.90753127  0.58906994    -0.56300
O389        O  0.32288348  0.84244662  0.66421558    -0.46400
O390        O  0.41792444  0.94134726  0.63293716    -0.52700
C391        C  0.35447319  0.93910100  0.73700741     0.87300
O392        O  0.25771147  0.90968581  0.62629737    -0.54600
O393        O  0.40460155  0.86056483  0.66361824    -0.57900
C394        C  0.13243172  0.86467297  0.40362584     0.32200
C395        C  0.14957564  0.77823587  0.38344052     0.32200
C396        C  0.10736803  0.84977424  0.35989135    -0.04000
C397        C  0.19201512  0.85121684  0.40453900    -0.04800
C398        C  0.11104865  0.83081393  0.43284767    -0.04700
C399        C  0.11643872  0.80510262  0.34894914    -0.04000
C400        C  0.20029885  0.80701348  0.39081851    -0.04800
C401        C  0.11959200  0.78643532  0.42370527    -0.04700
C402        C  0.11304909  0.80385885  0.30497976    -0.30100
N403        N  0.09918075  0.84498358  0.28961834     0.16400
C404        C  0.09680296  0.87320021  0.32276932    -0.30100
H405        H  0.09309606  0.90911649  0.32001276     0.18400
C406        C  0.24869313  0.79288526  0.40941553    -0.29000
N407        N  0.26731335  0.82279105  0.43845015     0.15200
C408        C  0.23319348  0.85810535  0.43650032    -0.29000
C409        C  0.09635025  0.76240094  0.45498763    -0.29300
N410        N  0.07485117  0.79201575  0.48154687     0.15700
H411        H  0.09495892  0.72646570  0.45803729     0.18300
C412        C  0.08376026  0.83365338  0.46819204    -0.29300
H413        H  0.07113325  0.86375195  0.48323278     0.18300
H414        H  0.23215819  0.88271774  0.46150537     0.18300
H415        H  0.12388146  0.77601402  0.28571764     0.18400
H416        H  0.26340690  0.75899379  0.40906172     0.18300
C417        C  0.11869434  0.91035435  0.41661913    -0.11100
C418        C  0.10275437  0.94040361  0.43778090    -0.12600
C419        C  0.20146273  0.97053623  0.60270299    -0.11100
C420        C  0.16062231  0.98088917  0.58134253    -0.12600
C421        C  0.48443204  0.92537772  0.54495067    -0.11100
C422        C  0.44651315  0.92477658  0.56560486    -0.12600
C423        C  0.04738870  0.78350366  0.51743932    -0.11100
C424        C  0.52339008  0.77934274  0.54861626    -0.12600
C425        C  0.31333014  0.78707353  0.50687107    -0.11100
C426        C  0.29608815  0.80680840  0.47534566    -0.12600
C427        C  0.42319443  0.62165008  0.58988580    -0.11100
C428        C  0.41227616  0.65235359  0.61233438    -0.12600
C429        C  0.35068492  0.57014271  0.45142278    -0.11100
C430        C  0.31139365  0.58029423  0.42851184    -0.12600
C431        C  0.06133169  0.62943777  0.45048631    -0.11100
C432        C  0.02579775  0.62863685  0.47322002    -0.12600
C433        C  0.14940366  0.65545239  0.11828093    -0.11100
C434        C  0.16412731  0.68343414  0.09422874    -0.12600
C435        C  0.10488989  0.71426116  0.94695143    -0.11100
C436        C  0.06427538  0.70570328  0.92446215    -0.12600
C437        C  0.28464566  0.66815769  0.98571177    -0.11100
C438        C  0.32186365  0.66975457  0.96432845    -0.12600
C439        C  0.24341940  0.52301322  0.99031633    -0.11100
C440        C  0.22364995  0.52627503  0.02362946    -0.12600
C441        C  0.45931329  0.53006480  0.01996094    -0.11100
C442        C  0.97873913  0.54913689  0.05115453    -0.12600
C443        C  0.33244687  0.86645387  0.93887898    -0.11100
C444        C  0.34181932  0.89528558  0.91368924    -0.12600
C445        C  0.40327565  0.82626036  0.08286004    -0.11100
C446        C  0.44291285  0.83600034  0.10594486    -0.12600
C447        C  0.18518146  0.87085307  0.07556252    -0.11100
C448        C  0.22198300  0.87200488  0.05392700    -0.12600
C449        C  0.85371808  0.32567885  0.05226019     0.88700
C450        C  0.81544058  0.36311063  0.06241720    -0.51600
C451        C  0.77149836  0.36685001  0.03410944     0.11600
C452        C  0.77188460  0.33493281  0.99633206     0.22500
C453        C  0.81766822  0.28364662  0.04718576    -0.52300
C454        C  0.77316215  0.28863585  0.01817839     0.11700
C455        C  0.86903587  0.33595073  0.00792222    -0.51800
C456        C  0.82687341  0.34168993  0.97857513     0.12300
H457        H  0.81809099  0.37944060  0.09325349     0.16800
H458        H  0.73793781  0.34090710  0.97216411     0.02500
H459        H  0.82579991  0.25418335  0.06650003     0.17100
H460        H  0.90984142  0.34325144  0.00135966     0.16900
In461      In  0.58248185  0.38957302  0.16345579     1.36900
C462        C  0.64640598  0.37837978  0.10296085     0.79800
O463        O  0.56146078  0.46135636  0.16911790    -0.58700
O464        O  0.64351212  0.44602439  0.16864615    -0.49600
C465        C  0.48997107  0.35381007  0.12839405     0.72400
O466        O  0.53080380  0.33072474  0.13919264    -0.44500
C467        C  0.59464698  0.36210765  0.24364866     0.77100
O468        O  0.60208978  0.39789442  0.09641389    -0.56300
O469        O  0.57137220  0.39790295  0.23225982    -0.46400
O470        O  0.65654205  0.36187083  0.13958287    -0.52700
C471        C  0.60827929  0.47601388  0.16679088     0.87300
O472        O  0.49552301  0.39480946  0.13677532    -0.54600
O473        O  0.61177143  0.33961113  0.21400410    -0.57900
C474        C  0.86624589  0.02680032  0.87415126     0.32200
C475        C  0.85642172  0.44374980  0.90295696     0.32200
C476        C  0.87433613  0.49348667  0.84361007    -0.04000
C477        C  0.90730609  0.00846997  0.90763481    -0.04800
C478        C  0.81252563  0.01746964  0.89378240    -0.04700
C479        C  0.86621834  0.44974438  0.85614634    -0.04000
C480        C  0.90352665  0.46852655  0.92794965    -0.04800
C481        C  0.80932815  0.47476206  0.90756262    -0.04700
C482        C  0.85948765  0.42446881  0.81962436    -0.30100
N483        N  0.86455884  0.45166361  0.78574058     0.16400
C484        C  0.87366214  0.49389818  0.80006334    -0.30100
H485        H  0.87225766  0.02285896  0.77623331     0.18400
C486        C  0.91977194  0.47058796  0.97140321    -0.29000
N487        N  0.94259197  0.00449130  0.97334351     0.15200
C488        C  0.93433519  0.03150429  0.93992899    -0.29000
C489        C  0.77626934  0.47315132  0.93965074    -0.29300
N490        N  0.76009357  0.01146384  0.94775870     0.15700
H491        H  0.76834301  0.44382633  0.95812241     0.18300
C492        C  0.78600550  0.04078808  0.92391718    -0.29300
H493        H  0.79092948  0.07590431  0.93132626     0.18300
H494        H  0.94149234  0.06715794  0.94103399     0.18300
H495        H  0.84882198  0.38950024  0.81763796     0.18400
H496        H  0.91211582  0.44562627  0.99483856     0.18300
C497        C  0.64974422  0.21577481  0.97633991     0.88700
C498        C  0.68463802  0.25861837  0.98132429    -0.51600
C499        C  0.72730176  0.25547625  0.01233549     0.11600
C500        C  0.72788624  0.21021857  0.03596437     0.22500
C501        C  0.68984833  0.17852758  0.96952261    -0.52300
C502        C  0.73229825  0.17698960  0.99959188     0.11700
C503        C  0.63134658  0.20711884  0.01997525    -0.51800
C504        C  0.67147424  0.20359287  0.05128949     0.12300
H505        H  0.67784000  0.28689699  0.96020960     0.16800
H506        H  0.76000385  0.20566447  0.06193589     0.02500
H507        H  0.69007020  0.16131835  0.93925521     0.17100
H508        H  0.59000251  0.19993657  0.02502969     0.16900
In509      In  0.91668179  0.15829721  0.86769882     1.36900
C510        C  0.85828093  0.17116715  0.93166776     0.79800
O511        O  0.88735929  0.20989025  0.81859594    -0.58700
O512        O  0.92665302  0.15190960  0.79829314    -0.49600
C513        C  0.51275093  0.18874920  0.90039252     0.72400
O514        O  0.97333685  0.21397464  0.89116114    -0.44500
C515        C  0.88115664  0.07416604  0.86339562     0.77100
O516        O  0.90247088  0.15114857  0.93621282    -0.56300
O517        O  0.92896349  0.08488009  0.85843106    -0.46400
O518        O  0.84618121  0.18818997  0.89545118    -0.52700
C519        C  0.90342810  0.18807281  0.78804239     0.87300
O520        O  0.00391025  0.14812082  0.89191180    -0.54600
O521        O  0.84998308  0.10679190  0.86523189    -0.57900
C522        C  0.62280236  0.02160330  0.15533138     0.32200
C523        C  0.63666492  0.10737680  0.13011618     0.32200
C524        C  0.64175951  0.05458620  0.19068802    -0.04000
C525        C  0.66330801  0.02856170  0.12134401    -0.04800
C526        C  0.57269355  0.04496065  0.13523102    -0.04700
C527        C  0.64929558  0.09842840  0.17751244    -0.04000
C528        C  0.67073236  0.07301854  0.11010457    -0.04800
C529        C  0.57951933  0.08879414  0.12042320    -0.04700
C530        C  0.66048155  0.12400481  0.21319442    -0.30100
N531        N  0.65900752  0.09721549  0.24765925     0.16400
C532        C  0.64714240  0.05487669  0.23443850    -0.30100
H533        H  0.64103008  0.02689592  0.25509457     0.18400
C534        C  0.69421829  0.07424976  0.07278632    -0.29000
N535        N  0.70131066  0.03224330  0.05987639     0.15200
C536        C  0.68145354  0.00370054  0.08815776    -0.29000
C537        C  0.54380588  0.09239362  0.08433988    -0.29300
N538        N  0.51415636  0.05456518  0.07999124     0.15700
H539        H  0.54491361  0.11768900  0.05998644     0.18300
C540        C  0.53178938  0.02575261  0.11022072    -0.29300
H541        H  0.51277216  0.50020791  0.11553069     0.18300
H542        H  0.67670603  0.47048789  0.08424280     0.18300
H543        H  0.66605030  0.15983171  0.21417870     0.17200
H544        H  0.70091996  0.10357143  0.05404596     0.18300
C545        C  0.89733347  0.07608409  0.47912097     0.88700
C546        C  0.93024931  0.11598021  0.46676997    -0.51600
C547        C  0.97557219  0.12281717  0.49258531     0.11600
C548        C  0.98164747  0.09132116  0.53086120     0.22500
C549        C  0.93757913  0.03663615  0.48279305    -0.52300
C550        C  0.98322610  0.04481485  0.50976617     0.11700
C551        C  0.88450982  0.08570730  0.52430460    -0.51800
C552        C  0.92819450  0.09444869  0.55147832     0.12300
H553        H  0.92348776  0.13181009  0.43576164     0.16800
H554        H  0.51668660  0.09994150  0.55302552     0.02500
H555        H  0.93094559  0.00645237  0.46425130     0.17100
H556        H  0.84399033  0.09057271  0.53284147     0.16900
In557      In  0.67328162  0.14254843  0.36941346     1.36900
C558        C  0.59768260  0.13268122  0.42021381     0.79800
O559        O  0.68310686  0.20783532  0.40161798    -0.58700
O560        O  0.64159794  0.20879030  0.34053976    -0.49600
C561        C  0.76277355  0.10274002  0.40301645     0.72400
O562        O  0.71842773  0.08306610  0.39825040    -0.44500
C563        C  0.66480115  0.11244564  0.29071380     0.77100
O564        O  0.64570614  0.13767345  0.43363757    -0.56300
O565        O  0.69080162  0.14732263  0.30164838    -0.46400
O566        O  0.58827657  0.12825185  0.38056573    -0.52700
C567        C  0.65700367  0.23057404  0.37343857     0.87300
O568        O  0.76235498  0.14207276  0.38845706    -0.54600
O569        O  0.64357142  0.09249734  0.32015546    -0.57900
C570        C  0.88654439  0.28109468  0.65332805     0.32200
C571        C  0.90242069  0.19652568  0.62776985     0.32200
C572        C  0.88242198  0.24528291  0.68734783    -0.04000
C573        C  0.84744145  0.26481458  0.61713653    -0.04800
C574        C  0.94177103  0.27225904  0.63592897    -0.04700
C575        C  0.89075602  0.20171549  0.67419549    -0.04000
C576        C  0.85643197  0.22168106  0.60204978    -0.04800
C577        C  0.94999590  0.22734487  0.62471591    -0.04700
C578        C  0.89964681  0.17611339  0.71029572    -0.30100
N579        N  0.89518489  0.20255915  0.74470091     0.16400
C580        C  0.88526272  0.24502242  0.73112646    -0.30100
H581        H  0.88412526  0.27389334  0.75157561     0.18400
C582        C  0.84268469  0.22424246  0.55829232    -0.29000
N583        N  0.82291195  0.26553536  0.54854110     0.15200
C584        C  0.82584740  0.29010527  0.58384119    -0.29000
C585        C  0.98468740  0.22641982  0.59371284    -0.29300
N586        N  0.99710626  0.26832669  0.58379653     0.15700
H587        H  0.99329687  0.19758290  0.57481970     0.18300
C588        C  0.97009247  0.29672639  0.60771269    -0.29300
H589        H  0.96596653  0.33213670  0.60156948     0.18300
H590        H  0.81954615  0.32580731  0.58409899     0.18300
H591        H  0.91139338  0.14132642  0.71156999     0.18400
H592        H  0.85178387  0.19953433  0.53501935     0.18300
C593        C  0.60951408  0.47197158  0.55365756     0.88700
C594        C  0.57527500  0.02046175  0.54452710    -0.51600
C595        C  0.53202517  0.01452284  0.51447558     0.11600
C596        C  0.53144669  0.46470326  0.49426727     0.22500
C597        C  0.57151413  0.43302332  0.56002620    -0.52300
C598        C  0.52874897  0.43071148  0.53029299     0.11700
C599        C  0.62808434  0.46508895  0.50984863    -0.51800
C600        C  0.58807736  0.46063096  0.47861058     0.12300
H601        H  0.58029070  0.04914618  0.56532032     0.16800
H602        H  0.99961220  0.45970693  0.46810548     0.02500
H603        H  0.57242552  0.41528303  0.59008888     0.17100
H604        H  0.66974531  0.45966386  0.50456656     0.16900
In605      In  0.84152286  0.41291748  0.66129134     1.36900
C606        C  0.90242234  0.42488813  0.59829570     0.79800
O607        O  0.87137493  0.46217892  0.71210847    -0.58700
O608        O  0.83283781  0.40300400  0.73055221    -0.49600
C609        C  0.74643669  0.44569152  0.62906477     0.72400
O610        O  0.78521484  0.47042409  0.64166040    -0.44500
C611        C  0.87258457  0.32821607  0.66481857     0.77100
O612        O  0.85708578  0.40700615  0.59272165    -0.56300
O613        O  0.82478480  0.34000861  0.66845880    -0.46400
O614        O  0.91448286  0.44070632  0.63497498    -0.52700
C615        C  0.85618834  0.43874586  0.74198433     0.87300
O616        O  0.75543299  0.40452067  0.63427643    -0.54600
O617        O  0.90535762  0.35987861  0.66466139    -0.57900
C618        C  0.62973017  0.36552764  0.40232020     0.32200
C619        C  0.64580845  0.27937388  0.38075598     0.32200
C620        C  0.60666862  0.35211943  0.35751350    -0.04000
C621        C  0.68909510  0.35103126  0.40488477    -0.04800
C622        C  0.60591826  0.33125629  0.42987679    -0.04700
C623        C  0.61510947  0.30750758  0.34599135    -0.04000
C624        C  0.69694645  0.30703114  0.39048321    -0.04800
C625        C  0.61398773  0.28705389  0.42000559    -0.04700
C626        C  0.61302082  0.30683774  0.30212873    -0.30100
N627        N  0.60070664  0.34838537  0.28718828     0.16400
C628        C  0.59814921  0.37629326  0.32059867    -0.30100
H629        H  0.59502387  0.41227525  0.31824645     0.18400
C630        C  0.74405633  0.29150633  0.41026054    -0.29000
N631        N  0.76210197  0.32048483  0.44031163     0.15200
C632        C  0.72895910  0.35643841  0.43814651    -0.29000
C633        C  0.59167095  0.26250000  0.45137028    -0.29300
N634        N  0.57101004  0.29165891  0.47873653     0.15700
H635        H  0.59140462  0.22659600  0.45449416     0.18300
C636        C  0.57967755  0.33347588  0.46582355    -0.29300
H637        H  0.56866256  0.36328421  0.48218636     0.18300
H638        H  0.72758157  0.38064501  0.46345149     0.18300
H639        H  0.62311285  0.27891757  0.28267475     0.18400
H640        H  0.75800969  0.25738544  0.40953786     0.18300
C641        C  0.61642387  0.41086315  0.41651279    -0.11100
C642        C  0.60038571  0.43918265  0.43957895    -0.12600
C643        C  0.69653379  0.46268704  0.60829945    -0.11100
C644        C  0.65566080  0.47193093  0.58647514    -0.12600
C645        C  0.97777757  0.42217559  0.54603109    -0.11100
C646        C  0.93993202  0.42330460  0.56679107    -0.12600
C647        C  0.54583028  0.28256373  0.51562923    -0.11100
C648        C  0.02289016  0.27799725  0.54732175    -0.12600
C649        C  0.80807230  0.28446787  0.50876096    -0.11100
C650        C  0.79018518  0.30386624  0.47724014    -0.12600
C651        C  0.92161988  0.12068128  0.58898399    -0.11100
C652        C  0.91200967  0.15113508  0.61214287    -0.12600
C653        C  0.84892467  0.07275584  0.44894429    -0.11100
C654        C  0.80947107  0.08290392  0.42593641    -0.12600
C655        C  0.55683566  0.13408126  0.44833889    -0.11100
C656        C  0.52158507  0.13400611  0.47131372    -0.12600
C657        C  0.64729835  0.15261242  0.11420230    -0.11100
C658        C  0.66060131  0.18123082  0.09024073    -0.12600
C659        C  0.60370171  0.21459359  0.94330829    -0.11100
C660        C  0.56304494  0.20485205  0.92136079    -0.12600
C661        C  0.78368550  0.16938875  0.98429786    -0.11100
C662        C  0.82154727  0.17040861  0.96364313    -0.12600
C663        C  0.73806134  0.01945777  0.98629760    -0.11100
C664        C  0.72029823  0.02299878  0.02040039    -0.12600
C665        C  0.96394660  0.02079444  0.01242429    -0.11100
C666        C  0.48516230  0.03894560  0.04338697    -0.12600
C667        C  0.83496389  0.36782739  0.94113703    -0.11100
C668        C  0.84631276  0.39815916  0.91829438    -0.12600
C669        C  0.90134792  0.32512767  0.08378874    -0.11100
C670        C  0.94164002  0.33519338  0.10603009    -0.12600
C671        C  0.68451884  0.37793837  0.07215366    -0.11100
C672        C  0.72196143  0.37696434  0.05115964    -0.12600
C673        C  0.85534946  0.82662963  0.05151879     0.88700
C674        C  0.81585739  0.86257897  0.06287828    -0.51600
C675        C  0.77118012  0.86544718  0.03526204     0.11600
C676        C  0.77220536  0.83458198  0.99674744     0.22500
C677        C  0.82101170  0.78361556  0.04611293    -0.52300
C678        C  0.77576075  0.78799567  0.01784462     0.11700
C679        C  0.86935163  0.83852614  0.00710841    -0.51800
C680        C  0.82637503  0.84316006  0.97828588     0.12300
H681        H  0.81832484  0.87799449  0.09414047     0.16800
H682        H  0.73759437  0.84024162  0.97313821     0.02500
H683        H  0.83044601  0.75404010  0.06499485     0.17100
H684        H  0.90972796  0.84646430  0.99989219     0.16900
In685      In  0.58332318  0.88713179  0.16579606     1.36900
C686        C  0.64698027  0.87162442  0.10614243     0.79800
O687        O  0.56536994  0.96004594  0.17422239    -0.58700
O688        O  0.64492070  0.94270395  0.16481627    -0.49600
C689        C  0.49069903  0.85365377  0.12939362     0.72400
O690        O  0.52850901  0.82931925  0.14467318    -0.44500
C691        C  0.59367869  0.85879176  0.24592346     0.77100
O692        O  0.60085159  0.88748840  0.09800213    -0.56300
O693        O  0.57134746  0.89503625  0.23456007    -0.46400
O694        O  0.65910926  0.86015517  0.14428486    -0.52700
C695        C  0.61151376  0.97359690  0.16732107     0.87300
O696        O  0.49893205  0.89494425  0.13447824    -0.54600
O697        O  0.61082478  0.83629181  0.21628936    -0.57900
C698        C  0.87180101  0.52882768  0.87810783     0.32200
C699        C  0.85114782  0.94086313  0.89755412     0.32200
C700        C  0.86733569  0.99222440  0.83885657    -0.04000
C701        C  0.91208219  0.51184887  0.91304157    -0.04800
C702        C  0.81741884  0.51994854  0.89701837    -0.04700
C703        C  0.85930954  0.94805058  0.85058395    -0.04000
C704        C  0.89933496  0.96476472  0.92137587    -0.04800
C705        C  0.80468133  0.97213376  0.90381920    -0.04700
C706        C  0.85512120  0.92329386  0.81382804    -0.30100
N707        N  0.86115752  0.95128199  0.78071206     0.16400
C708        C  0.86897416  0.99338176  0.79563794    -0.30100
H709        H  0.87571762  0.52310723  0.78012370     0.18400
C710        C  0.92023246  0.96412886  0.96366352    -0.29000
N711        N  0.94051688  0.51168772  0.98081279     0.15200
C712        C  0.93561967  0.53667272  0.94582038    -0.29000
C713        C  0.77150725  0.96998159  0.93580359    -0.29300
N714        N  0.76534763  0.51473961  0.95142071     0.15700
H715        H  0.76365973  0.94044847  0.95399033     0.18300
C716        C  0.79128375  0.54368208  0.92721558    -0.29300
H717        H  0.79653813  0.57877147  0.93436334     0.18300
H718        H  0.94227097  0.57233670  0.94565143     0.18300
H719        H  0.84611840  0.88804155  0.81107878     0.18400
H720        H  0.91481487  0.93804032  0.98654225     0.18300
C721        C  0.65144174  0.71502060  0.97939805     0.88700
C722        C  0.68691404  0.75745515  0.98286325    -0.51600
C723        C  0.73020365  0.75465033  0.01323743     0.11600
C724        C  0.73097901  0.71000732  0.03790206     0.22500
C725        C  0.69070895  0.67706383  0.97272781    -0.52300
C726        C  0.73403704  0.67588368  0.00201944     0.11700
C727        C  0.63411282  0.70773165  0.02358344    -0.51800
C728        C  0.67493966  0.70447231  0.05438366     0.12300
H729        H  0.67981172  0.78526168  0.96123052     0.16800
H730        H  0.76374851  0.70585901  0.06343975     0.02500
H731        H  0.68981346  0.65913881  0.94276579     0.17100
H732        H  0.59285772  0.70133339  0.02947169     0.16900
In733      In  0.91847304  0.66055966  0.86834812     1.36900
C734        C  0.85876184  0.67176414  0.93214926     0.79800
O735        O  0.89047229  0.71289478  0.81900007    -0.58700
O736        O  0.92530100  0.65318769  0.79822000    -0.49600
C737        C  0.51412508  0.69046137  0.90230278     0.72400
O738        O  0.97447636  0.71580286  0.89431338    -0.44500
C739        C  0.88592757  0.57589948  0.86609038     0.77100
O740        O  0.90411927  0.65378264  0.93701700    -0.56300
O741        O  0.93367295  0.58724152  0.86166532    -0.46400
O742        O  0.84592212  0.68789288  0.89567162    -0.52700
C743        C  0.90378060  0.69007802  0.78806198     0.87300
O744        O  0.00602884  0.65049267  0.89127411    -0.54600
O745        O  0.85356681  0.60791189  0.86596902    -0.57900
C746        C  0.61979828  0.52437641  0.15635548     0.32200
C747        C  0.63682120  0.61031455  0.13329600     0.32200
C748        C  0.64627465  0.55450583  0.19155152    -0.04000
C749        C  0.65555531  0.53109930  0.11909714    -0.04800
C750        C  0.56917879  0.55110206  0.14149667    -0.04700
C751        C  0.65530077  0.59848875  0.17938052    -0.04000
C752        C  0.66437427  0.57531258  0.10887628    -0.04800
C753        C  0.57776933  0.59509978  0.12732480    -0.04700
C754        C  0.66955612  0.62257642  0.21555314    -0.30100
N755        N  0.66836680  0.59499656  0.24946515     0.16400
C756        C  0.65354242  0.55350563  0.23535657    -0.30100
H757        H  0.64517922  0.52564092  0.25549902     0.18400
C758        C  0.69199332  0.57701386  0.07371916    -0.29000
N759        N  0.70033473  0.53508824  0.06109645     0.15200
C760        C  0.67826131  0.50623493  0.08804880    -0.29000
C761        C  0.54034787  0.60074563  0.09236117    -0.29300
N762        N  0.50802294  0.56444490  0.08811763     0.15700
H763        H  0.54265779  0.62583431  0.06794246     0.18300
C764        C  0.52503863  0.53473927  0.11772310    -0.29300
H765        H  0.52219112  0.99051852  0.10880526     0.18300
H766        H  0.67680403  0.96811958  0.08336495     0.18300
H767        H  0.67541786  0.65834021  0.21739880     0.17200
H768        H  0.70270276  0.60660984  0.05685813     0.18300
C769        C  0.89900321  0.57367789  0.48143649     0.88700
C770        C  0.93387445  0.61177813  0.46781375    -0.51600
C771        C  0.97913634  0.61828514  0.49382566     0.11600
C772        C  0.98340646  0.58821717  0.53318447     0.22500
C773        C  0.93706616  0.53313223  0.48674569    -0.52300
C774        C  0.98284831  0.54090175  0.51350854     0.11700
C775        C  0.88604380  0.58568183  0.52599456    -0.51800
C776        C  0.92971953  0.59407007  0.55320584     0.12300
H777        H  0.92804569  0.62658514  0.43630357     0.16800
H778        H  0.51859489  0.59643196  0.55526926     0.02500
H779        H  0.92898332  0.50244277  0.46928241     0.17100
H780        H  0.84558992  0.59208860  0.53401162     0.16900
In781      In  0.67757645  0.64087021  0.37136760     1.36900
C782        C  0.60218794  0.62909494  0.42199548     0.79800
O783        O  0.69107564  0.70703167  0.40231703    -0.58700
O784        O  0.64160734  0.70654853  0.34475453    -0.49600
C785        C  0.76547288  0.60055698  0.40571077     0.72400
O786        O  0.72060901  0.58167404  0.40187961    -0.44500
C787        C  0.67319919  0.60988955  0.29270559     0.77100
O788        O  0.65034352  0.63314519  0.43552908    -0.56300
O789        O  0.69900475  0.64464024  0.30432250    -0.46400
O790        O  0.59253430  0.62697213  0.38218167    -0.52700
C791        C  0.66103275  0.72913635  0.37601086     0.87300
O792        O  0.76621432  0.63950814  0.39032640    -0.54600
O793        O  0.65023482  0.59040188  0.32145793    -0.57900
C794        C  0.88440366  0.78210037  0.65253801     0.32200
C795        C  0.90143143  0.69763657  0.62753868     0.32200
C796        C  0.87933268  0.74641208  0.68666306    -0.04000
C797        C  0.84623937  0.76571260  0.61576361    -0.04800
C798        C  0.94018105  0.77339634  0.63608140    -0.04700
C799        C  0.88820394  0.70279183  0.67372769    -0.04000
C800        C  0.85611476  0.72266731  0.60074558    -0.04800
C801        C  0.94902059  0.72852560  0.62524023    -0.04700
C802        C  0.89849354  0.67765403  0.71011545    -0.30100
N803        N  0.89432331  0.70422696  0.74451295     0.16400
C804        C  0.88346778  0.74646351  0.73057480    -0.30100
H805        H  0.88275454  0.77555344  0.75081104     0.18400
C806        C  0.84501828  0.72587407  0.55666400    -0.29000
N807        N  0.82573206  0.76727160  0.54663793     0.15200
C808        C  0.82617706  0.79126948  0.58211748    -0.29000
C809        C  0.98419721  0.72772347  0.59455298    -0.29300
N810        N  0.99640572  0.76963146  0.58453884     0.15700
H811        H  0.99346742  0.69884678  0.57593681     0.18300
C812        C  0.96875561  0.79794060  0.60803889    -0.29300
H813        H  0.96449627  0.83330632  0.60173186     0.18300
H814        H  0.81972954  0.82695629  0.58243682     0.18300
H815        H  0.91135320  0.64315761  0.71149912     0.18400
H816        H  0.85578496  0.70156513  0.53358468     0.18300
C817        C  0.61382281  0.97989466  0.54911025     0.88700
C818        C  0.57246956  0.51351235  0.54956379    -0.51600
C819        C  0.52998286  0.50940288  0.51864570     0.11600
C820        C  0.53449439  0.96909568  0.49132237     0.22500
C821        C  0.57747535  0.94037377  0.55730568    -0.52300
C822        C  0.53428649  0.93603603  0.52829738     0.11700
C823        C  0.63132478  0.97220473  0.50508970    -0.51800
C824        C  0.59071067  0.96552640  0.47472692     0.12300
H825        H  0.57764191  0.54148923  0.57122750     0.16800
H826        H  0.00199022  0.96277874  0.46607109     0.02500
H827        H  0.57995870  0.92336384  0.58780708     0.17100
H828        H  0.67288800  0.96695625  0.49936817     0.16900
In829      In  0.84281129  0.91476450  0.65644017     1.36900
C830        C  0.90763969  0.92545670  0.59593990     0.79800
O831        O  0.87200330  0.96274872  0.70802336    -0.58700
O832        O  0.83047879  0.90410811  0.72447040    -0.49600
C833        C  0.75040788  0.95140217  0.62307373     0.72400
O834        O  0.78964929  0.97449977  0.63784382    -0.44500
C835        C  0.87077765  0.82957653  0.66296116     0.77100
O836        O  0.86243386  0.90756621  0.58895030    -0.56300
O837        O  0.82287052  0.84246253  0.66412705    -0.46400
O838        O  0.91793948  0.94132134  0.63279833    -0.52700
C839        C  0.85460921  0.93915097  0.73689264     0.87300
O840        O  0.75772923  0.90979087  0.62623569    -0.54600
O841        O  0.90458374  0.86052846  0.66343810    -0.57900
C842        C  0.63237209  0.86452700  0.40351793     0.32200
C843        C  0.64951604  0.77808584  0.38332481     0.32200
C844        C  0.60736011  0.84965015  0.35976769    -0.04000
C845        C  0.69195077  0.85105844  0.40446949    -0.04800
C846        C  0.61092872  0.83067295  0.43270057    -0.04700
C847        C  0.61644184  0.80498118  0.34880143    -0.04000
C848        C  0.70024109  0.80686171  0.39074133    -0.04800
C849        C  0.61946680  0.78629102  0.42356900    -0.04700
C850        C  0.61319161  0.80381358  0.30482383    -0.30100
N851        N  0.59935411  0.84496386  0.28949479     0.16400
C852        C  0.59689096  0.87312515  0.32267067    -0.30100
H853        H  0.59318333  0.90904599  0.31995698     0.18400
C854        C  0.74864729  0.79274346  0.40932268    -0.29000
N855        N  0.76724638  0.82263797  0.43837544     0.15200
C856        C  0.73311542  0.85794345  0.43643805    -0.29000
C857        C  0.59613395  0.76228107  0.45483223    -0.29300
N858        N  0.57458843  0.79192059  0.48135159     0.15700
H859        H  0.59472263  0.72634705  0.45789795     0.18300
C860        C  0.58355560  0.83354230  0.46799477    -0.29300
H861        H  0.57092349  0.86365444  0.48301161     0.18300
H862        H  0.73206344  0.88254185  0.46145423     0.18300
H863        H  0.62406663  0.77599658  0.28554623     0.18400
H864        H  0.76339377  0.75886419  0.40894444     0.18300
C865        C  0.61863275  0.91020708  0.41651812    -0.11100
C866        C  0.60269123  0.94024602  0.43769257    -0.12600
C867        C  0.70159287  0.97067417  0.60255530    -0.11100
C868        C  0.66075405  0.98099993  0.58117881    -0.12600
C869        C  0.98434003  0.92535143  0.54480541    -0.11100
C870        C  0.94640996  0.92475725  0.56543961    -0.12600
C871        C  0.54713736  0.78347799  0.51726864    -0.11100
C872        C  0.02356957  0.77927197  0.54873367    -0.12600
C873        C  0.81316026  0.78689029  0.50681194    -0.11100
C874        C  0.79597138  0.80663085  0.47527870    -0.12600
C875        C  0.92311659  0.62149740  0.58995925    -0.11100
C876        C  0.91214116  0.65224582  0.61233687    -0.12600
C877        C  0.85089914  0.57021524  0.45139611    -0.11100
C878        C  0.81162460  0.58031566  0.42845119    -0.12600
C879        C  0.56137838  0.62898843  0.45022616    -0.11100
C880        C  0.52579280  0.62825604  0.47291192    -0.12600
C881        C  0.64982389  0.65540407  0.11818570    -0.11100
C882        C  0.66442523  0.68338742  0.09408780    -0.12600
C883        C  0.60486719  0.71417540  0.94683161    -0.11100
C884        C  0.56420004  0.70560102  0.92440301    -0.12600
C885        C  0.78477579  0.66822164  0.98551197    -0.11100
C886        C  0.82203805  0.66986106  0.96418824    -0.12600
C887        C  0.74269782  0.52300399  0.98965856    -0.11100
C888        C  0.72312070  0.52622382  0.02305994    -0.12600
C889        C  0.95865827  0.53015706  0.02012451    -0.11100
C890        C  0.47928788  0.54913252  0.05097566    -0.12600
C891        C  0.83241928  0.86655395  0.93878465    -0.11100
C892        C  0.84182916  0.89534882  0.91356891    -0.12600
C893        C  0.90310492  0.82638331  0.08282762    -0.11100
C894        C  0.94277377  0.83602715  0.10591784    -0.12600
C895        C  0.68493624  0.87111809  0.07529563    -0.11100
C896        C  0.72176411  0.87219195  0.05368736    -0.12600
loop_ 
_geom_bond_atom_site_label_1 
_geom_bond_atom_site_label_2 
_geom_bond_distance 
_geom_bond_site_symmetry_2 
_ccdc_geom_bond_type 
C1            C2   1.531       .  S
C1            C7   1.519       .  S
C1            C5   1.552       .  S
C1          C221   1.489       .  S
C2            H9   1.088       .  S
C2            C3   1.363       .  D
C3            C4   1.531   1_554  S
C3          C224   1.434       .  S
C4            C8   1.553       .  S
C4            C6   1.549   1_556  S
C4           H10   1.108       .  S
C5           H11   1.082       .  S
C5            C6   1.390       .  D
C6           C51   1.522       .  S
C7           H12   1.088       .  S
C7            C8   1.356   1_554  D
C8          C219   1.449       .  S
In13         O15   2.225       .  S
In13         O16   2.281       .  S
In13         O24   2.277   1_455  S
In13         O18   2.282       .  S
In13         O20   2.234       .  S
In13         O21   2.233       .  S
In13         O22   2.232       .  S
In13         O25   2.263       .  S
C14          O20   1.259       .  A
C14          O22   1.264       .  A
C14         C223   1.428       .  S
O15          C23   1.266       .  A
O16          C23   1.259       .  A
C17          O24   1.262       .  A
C17          O18   1.259   1_655  A
C17         C670   1.457       .  S
C19          O21   1.259       .  A
C19          O25   1.262       .  A
C19         N179   1.432       .  S
C23         C298   1.520       .  S
C26          C30   1.563       .  S
C26          C29   1.514       .  S
C26          C67   1.515       .  S
C26         C252   1.525   1_545  S
C27         C220   1.479       .  S
C27          C31   1.533       .  S
C27          C33   1.522       .  S
C27          C32   1.553       .  S
C28         C250   1.526       .  S
C28          C36   1.376       .  A
C28          C31   1.390       .  A
C29          C40   1.363       .  A
C29         C256   1.400   1_545  A
C30          C44   1.399       .  A
C30         C257   1.413   1_545  A
C31          C34   1.379       .  A
C32          C38   1.400       .  A
C32         C253   1.405       .  A
C33          C41   1.370       .  A
C33         C254   1.413       .  A
C34          N35   1.362       .  A
C34          H47   1.082       .  S
N35         C167   1.434       .  S
N35          C36   1.357       .  A
C36         H261   1.083       .  S
H37         C260   1.083   1_545  S
C38         N263   1.360       .  A
C38          H48   1.083       .  S
N39          C40   1.332       .  A
N39         C262   1.357   1_545  A
N39         C217   1.392   1_556  S
C40          H46   1.083       .  S
C41         N266   1.336       .  A
C41          H43   1.084       .  S
N42          C44   1.362       .  A
N42         C265   1.338   1_545  A
N42         C215   1.404       .  S
C44          H45   1.083       .  S
C49          C50   1.556       .  S
C49          C55   1.517   1_556  S
C49          C53   1.532       .  S
C49         C211   1.489       .  S
C50          H57   1.083       .  S
C50          C51   1.390   1_556  D
C51          C52   1.548       .  S
C52          C56   1.553       .  S
C52          C54   1.533   1_554  S
C52          H58   1.107       .  S
C53          H59   1.088       .  S
C53          C54   1.365       .  D
C54         C213   1.439       .  S
C55          H60   1.088       .  S
C55          C56   1.353       .  D
C56         C210   1.450       .  S
In61         O63   2.266       .  S
In61         O64   2.241       .  S
In61         O72   2.278       .  S
In61         O66   2.275       .  S
In61         O68   2.238       .  S
In61         O69   2.244       .  S
In61         O70   2.236       .  S
In61         O73   2.277       .  S
C62          O68   1.260       .  A
C62          O70   1.266       .  A
C62         C214   1.431       .  S
O63          C71   1.263       .  A
O64          C71   1.259       .  A
C65         O520   1.263       .  A
C65         O514   1.260   1_455  A
C65         C212   1.457       .  S
O66         C513   1.260       .  A
C67          O69   1.268       .  A
C67          O73   1.257       .  A
C71         N131   1.435       .  S
O72         C513   1.263       .  A
C74          C76   1.536       .  S
C74          C78   1.529       .  S
C74          C77   1.561       .  S
C74         C247   1.521   1_545  S
C75         C209   1.479       .  S
C75          C79   1.528       .  S
C75          C81   1.547       .  S
C75          C80   1.514       .  S
C76          C84   1.378       .  A
C76          C79   1.396       .  A
C77          C88   1.397       .  A
C77          C80   1.396       .  A
C78          C92   1.367       .  A
C78          C81   1.410       .  A
C79          C82   1.372       .  A
C80          C86   1.367       .  A
C81          C89   1.391       .  A
C82          N83   1.357       .  A
C82          H95   1.083       .  S
N83         C115   1.431       .  S
N83          C84   1.360       .  A
C84          H85   1.082       .  S
C86          N87   1.340       .  A
C86          H96   1.082       .  S
N87          C88   1.365       .  A
N87         C216   1.404       .  S
C88         H318   1.082   1_545  S
C89          N90   1.357       .  A
C89          H91   1.083       .  S
N90          C92   1.334       .  A
N90         C218   1.393   1_455  S
C92         H317   1.083   1_545  S
H93         C316   1.080       .  S
H94         C312   1.078       .  S
C97          C98   1.525       .  S
C97         C103   1.521       .  S
C97         C101   1.554       .  S
C97         C205   1.482       .  S
C98         H105   1.089       .  S
C98          C99   1.357       .  D
C99         C100   1.532       .  S
C99         C656   1.426       .  S
C100        C104   1.549       .  S
C100        C102   1.547       .  S
C100        H554   1.108       .  S
C101        H107   1.083       .  S
C101        C102   1.389       .  D
C102        C595   1.521       .  S
C103        H108   1.088       .  S
C103        C104   1.358       .  D
C104        C203   1.445       .  S
H106        C548   1.108   1_455  S
In109       O111   2.209       .  S
In109       O112   2.297       .  S
In109       O120   2.267       .  S
In109       O114   2.260       .  S
In109       O116   2.210       .  S
In109       O117   2.231       .  S
In109       O118   2.240       .  S
In109       O121   2.242       .  S
C110        O116   1.253       .  A
C110        O118   1.262       .  A
C110        C207   1.419       .  S
O111        C119   1.258       .  A
O112        C119   1.260       .  A
C113        O120   1.265       .  A
C113        O114   1.259       .  A
C113        C206   1.451       .  S
C115        O117   1.265       .  A
C115        O121   1.265       .  A
C119        C171   1.510       .  S
C122        C124   1.530       .  S
C122        C126   1.562       .  S
C122        C125   1.521       .  S
C122        C163   1.507       .  S
C123        C204   1.474       .  S
C123        C127   1.531       .  S
C123        C129   1.522       .  S
C123        C128   1.548       .  S
C124        C132   1.380       .  A
C124        C127   1.392       .  A
C125        C136   1.369       .  A
C125        C128   1.403       .  A
C126        C140   1.399       .  A
C126        C129   1.411       .  A
C127        C130   1.377       .  A
C128        C134   1.398       .  A
C129        C137   1.371       .  A
C130        N131   1.359       .  A
C130        H143   1.083       .  S
N131        C132   1.358       .  A
C132        H133   1.082       .  S
C134        N135   1.358       .  A
C134        H144   1.083       .  S
N135        C136   1.334       .  A
N135        C201   1.400       .  S
C136        H142   1.082       .  S
C137        N138   1.338       .  A
C137        H139   1.083       .  S
N138        C140   1.361       .  A
N138        C200   1.404       .  S
C140        H141   1.082       .  S
C145        C151   1.516       .  S
C145        C149   1.534       .  S
C145        C370   1.553       .  S
C145        C196   1.486       .  S
C146        C369   1.553   1_545  S
C146        H153   1.083       .  S
C146        C147   1.390       .  D
C147        C372   1.550   1_545  S
C147        C550   1.521   1_455  S
C148        C152   1.554       .  S
C148        C150   1.534       .  S
C148        C371   1.548       .  S
C148        H602   1.108   1_455  S
C149        H155   1.088       .  S
C149        C150   1.365       .  D
C150        C645   1.441   1_455  S
C151        H156   1.088       .  S
C151        C152   1.352       .  D
C152        C194   1.450       .  S
H154        C596   1.108       .  S
In157       O159   2.260       .  S
In157       O160   2.242       .  S
In157       O168   2.270       .  S
In157       O162   2.280       .  S
In157       O164   2.246       .  S
In157       O165   2.240       .  S
In157       O166   2.244       .  S
In157       O169   2.254       .  S
C158        O164   1.258       .  A
C158        O166   1.265       .  A
C158        C198   1.434       .  S
O159        C167   1.264       .  A
O160        C167   1.259       .  A
C161        O168   1.262       .  A
C161        O162   1.261       .  A
C161        C195   1.455       .  S
C163        O165   1.268       .  A
C163        O169   1.257       .  A
C170        C193   1.478       .  S
C170        C172   1.536       .  S
C170        C174   1.506       .  S
C170        C173   1.550       .  S
C171        C175   1.537       .  S
C171        C177   1.554       .  S
C171        C176   1.538       .  S
C172        C180   1.374       .  A
C172        C175   1.406       .  A
C173        C184   1.396       .  A
C173        C176   1.414       .  A
C174        C188   1.367       .  A
C174        C177   1.380       .  A
C175        C178   1.384       .  A
C176        C182   1.370       .  A
C177        C185   1.393       .  A
C178        N179   1.357       .  A
C178        H191   1.082       .  S
N179        C180   1.354       .  A
C180        H181   1.083       .  S
C182        N183   1.336       .  A
C182        H192   1.082       .  S
N183        C184   1.360       .  A
N183        C202   1.401       .  S
C184        H190   1.083       .  S
C185        N186   1.365       .  A
C185        H187   1.080       .  S
N186        C188   1.342       .  A
N186        C199   1.404       .  S
C188        H189   1.081       .  S
C193        C194   1.211       .  T
C195        C196   1.217       .  T
C197        C598   1.442       .  S
C197        C198   1.205       .  T
C199        C648   1.209       .  T
C200        C647   1.209       .  T
C201        C202   1.205       .  T
C203        C204   1.208       .  T
C205        C206   1.215       .  T
C207        C208   1.196       .  T
C208        C547   1.426   1_455  S
C209        C210   1.212       .  T
C211        C212   1.219       .  T
C213        C214   1.203       .  T
C215        C216   1.209   1_556  T
C217        C666   1.199       .  T
C218        C665   1.199       .  T
C219        C220   1.211       .  T
C221        C222   1.219       .  T
C222        C465   1.457       .  S
C223        C224   1.201       .  T
C225        C226   1.529       .  S
C225        C231   1.521       .  S
C225        C229   1.553       .  S
C225        C445   1.486       .  S
C226        H233   1.088       .  S
C226        C227   1.362       .  D
C227        C228   1.532   1_554  S
C227        C448   1.434       .  S
C228        C232   1.552       .  S
C228        C230   1.546   1_556  S
C228        H234   1.108       .  S
C229        H235   1.083       .  S
C229        C230   1.389       .  D
C230        C275   1.518       .  S
C231        H236   1.087   1_554  S
C231        C232   1.357   1_554  D
C232        C443   1.453       .  S
In237       O239   2.251       .  S
In237       O240   2.277       .  S
In237       O248   2.272   1_455  S
In237       O242   2.277       .  S
In237       O244   2.228       .  S
In237       O245   2.236       .  S
In237       O246   2.233       .  S
In237       O249   2.269       .  S
C238        O244   1.259       .  A
C238        O246   1.265       .  A
C238        C447   1.426       .  S
O239        C247   1.267       .  A
O240        C247   1.257       .  A
C241        O248   1.262       .  A
C241        O242   1.259   1_655  A
C241        C894   1.454       .  S
C243        O245   1.260       .  A
C243        O249   1.262       .  A
C243        N403   1.434       .  S
C250        C254   1.565       .  S
C250        C253   1.518       .  S
C250        C291   1.511       .  S
C251        C444   1.481       .  S
C251        C255   1.533       .  S
C251        C257   1.524       .  S
C251        C256   1.545       .  S
C252        C260   1.372       .  A
C252        C255   1.394       .  A
C253        C264   1.367       .  A
C254        C268   1.401       .  A
C255        C258   1.375       .  A
C256        C262   1.393       .  A
C257        C265   1.370       .  A
C258        N259   1.361       .  A
C258        H271   1.082       .  S
N259        C391   1.428       .  S
N259        C260   1.355       .  A
C262        H272   1.082       .  S
N263        C264   1.333       .  A
N263        C441   1.399   1_556  S
C264        H270   1.082       .  S
C265        H267   1.083       .  S
N266        C268   1.362       .  A
N266        C439   1.405       .  S
C268        H269   1.081       .  S
C273        C274   1.552       .  S
C273        C279   1.517   1_556  S
C273        C277   1.533       .  S
C273        C435   1.489       .  S
C274        H281   1.083       .  S
C274        C275   1.388   1_556  D
C275        C276   1.548       .  S
C276        C280   1.556       .  S
C276        C278   1.535       .  S
C276        H282   1.108       .  S
C277        H283   1.088       .  S
C277        C278   1.366   1_556  D
C278        C437   1.441   1_554  S
C279        H284   1.088       .  S
C279        C280   1.354       .  D
C280        C434   1.452       .  S
In285       O287   2.279       .  S
In285       O288   2.252       .  S
In285       O296   2.276       .  S
In285       O290   2.279       .  S
In285       O292   2.244       .  S
In285       O293   2.243       .  S
In285       O294   2.244       .  S
In285       O297   2.267       .  S
C286        O292   1.258       .  A
C286        O294   1.266       .  A
C286        C438   1.433       .  S
O287        C295   1.263       .  A
O288        C295   1.259       .  A
C289        O744   1.263       .  A
C289        O738   1.261   1_455  A
C289        C436   1.457       .  S
O290        C737   1.261       .  A
C291        O293   1.268       .  A
C291        O297   1.257       .  A
C295        N355   1.441       .  S
O296        C737   1.262       .  A
C298        C300   1.538       .  S
C298        C302   1.541       .  S
C298        C301   1.559       .  S
C299        C433   1.480       .  S
C299        C303   1.531       .  S
C299        C305   1.549       .  S
C299        C304   1.508       .  S
C300        C308   1.382       .  A
C300        C303   1.397       .  A
C301        C312   1.395       .  A
C301        C304   1.386       .  A
C302        C316   1.374       .  A
C302        C305   1.415       .  A
C303        C306   1.373       .  A
C304        C310   1.364       .  A
C305        C313   1.396       .  A
C306        N307   1.357       .  A
C306        H319   1.083       .  S
N307        C339   1.434       .  S
N307        C308   1.362       .  A
C308        H309   1.082       .  S
C310        N311   1.340       .  A
C310        H320   1.082       .  S
N311        C312   1.367       .  A
N311        C440   1.404       .  S
C313        N314   1.358       .  A
C313        H315   1.083       .  S
N314        C316   1.334       .  A
N314        C442   1.400   1_455  S
C321        C322   1.526       .  S
C321        C327   1.518       .  S
C321        C325   1.546       .  S
C321        C429   1.474       .  S
C322        H329   1.089       .  S
C322        C323   1.357       .  D
C323        C324   1.533       .  S
C323        C880   1.428       .  S
C324        C328   1.552       .  S
C324        C326   1.548       .  S
C324        H778   1.108       .  S
C325        H331   1.083       .  S
C325        C326   1.386       .  D
C326        C819   1.515       .  S
C327        H332   1.088       .  S
C327        C328   1.357       .  D
C328        C427   1.445       .  S
H330        C772   1.108   1_455  S
In333       O335   2.223       .  S
In333       O336   2.293       .  S
In333       O344   2.256       .  S
In333       O338   2.249       .  S
In333       O340   2.212       .  S
In333       O341   2.238       .  S
In333       O342   2.237       .  S
In333       O345   2.249       .  S
C334        O340   1.254       .  A
C334        O342   1.263       .  A
C334        C431   1.420       .  S
O335        C343   1.260       .  A
O336        C343   1.260       .  A
C337        O344   1.265       .  A
C337        O338   1.259       .  A
C337        C430   1.443       .  S
C339        O341   1.264       .  A
C339        O345   1.264       .  A
C343        C395   1.516       .  S
C346        C348   1.533       .  S
C346        C350   1.562       .  S
C346        C349   1.521       .  S
C346        C387   1.506       .  S
C347        C428   1.475       .  S
C347        C351   1.535       .  S
C347        C353   1.521       .  S
C347        C352   1.551       .  S
C348        C356   1.384       .  A
C348        C351   1.393       .  A
C349        C360   1.370       .  A
C349        C352   1.404       .  A
C350        C364   1.400       .  A
C350        C353   1.410       .  A
C351        C354   1.380       .  A
C352        C358   1.401       .  A
C353        C361   1.372       .  A
C354        N355   1.360       .  A
C354        H367   1.082       .  S
N355        C356   1.360       .  A
C356        H357   1.082       .  S
C358        N359   1.359       .  A
C358        H368   1.083       .  S
N359        C360   1.332       .  A
N359        C425   1.400       .  S
C360        H366   1.081       .  S
C361        N362   1.337       .  A
C361        H363   1.084       .  S
N362        C364   1.360       .  A
N362        C424   1.405       .  S
C364        H365   1.082       .  S
C369        C375   1.516       .  S
C369        C373   1.533       .  S
C369        C420   1.486       .  S
C370        H377   1.083       .  S
C370        C371   1.388       .  D
C371        C774   1.515   1_455  S
C372        C376   1.556       .  S
C372        C374   1.533       .  S
C372        H826   1.108       .  S
C373        H379   1.088       .  S
C373        C374   1.364       .  D
C374        C869   1.439   1_455  S
C375        H380   1.088       .  S
C375        C376   1.353       .  D
C376        C418   1.449       .  S
H378        C820   1.108       .  S
In381       O383   2.248       .  S
In381       O384   2.225       .  S
In381       O392   2.269       .  S
In381       O386   2.279       .  S
In381       O388   2.245       .  S
In381       O389   2.242       .  S
In381       O390   2.241       .  S
In381       O393   2.245       .  S
C382        O388   1.259       .  A
C382        O390   1.264       .  A
C382        C422   1.433       .  S
O383        C391   1.264       .  A
O384        C391   1.258       .  A
C385        O392   1.263       .  A
C385        O386   1.261       .  A
C385        C419   1.455       .  S
C387        O389   1.269       .  A
C387        O393   1.258       .  A
C394        C417   1.479       .  S
C394        C396   1.534       .  S
C394        C398   1.504       .  S
C394        C397   1.550       .  S
C395        C399   1.539       .  S
C395        C401   1.557       .  S
C395        C400   1.541       .  S
C396        C404   1.373       .  A
C396        C399   1.406       .  A
C397        C408   1.396       .  A
C397        C400   1.415       .  A
C398        C412   1.366       .  A
C398        C401   1.382       .  A
C399        C402   1.386       .  A
C400        C406   1.370       .  A
C401        C409   1.395       .  A
C402        N403   1.358       .  A
C402        H415   1.082       .  S
N403        C404   1.353       .  A
C404        H405   1.083       .  S
C406        N407   1.337       .  A
C406        H416   1.081       .  S
N407        C408   1.360       .  A
N407        C426   1.401       .  S
C408        H414   1.083       .  S
C409        N410   1.366       .  A
C409        H411   1.082       .  S
N410        C412   1.343       .  A
N410        C423   1.405       .  S
C412        H413   1.080       .  S
C417        C418   1.211       .  T
C419        C420   1.218       .  T
C421        C822   1.440       .  S
C421        C422   1.204       .  T
C423        C872   1.209       .  T
C424        C871   1.209       .  T
C425        C426   1.206       .  T
C427        C428   1.209       .  T
C429        C430   1.210       .  T
C431        C432   1.197       .  T
C432        C771   1.427   1_455  S
C433        C434   1.213       .  T
C435        C436   1.219       .  T
C437        C438   1.205       .  T
C439        C440   1.209   1_556  T
C441        C890   1.205       .  T
C442        C889   1.205       .  T
C443        C444   1.213       .  T
C445        C446   1.217       .  T
C446        C689   1.454       .  S
C447        C448   1.201       .  T
C449        C450   1.531       .  S
C449        C455   1.519       .  S
C449        C453   1.552       .  S
C449        C669   1.488       .  S
C450        H457   1.088       .  S
C450        C451   1.363       .  D
C451        C452   1.531   1_554  S
C451        C672   1.434       .  S
C452        C456   1.553       .  S
C452        C454   1.549   1_556  S
C452        H458   1.108       .  S
C453        H459   1.082       .  S
C453        C454   1.390       .  D
C454        C499   1.522       .  S
C455        H460   1.088       .  S
C455        C456   1.356   1_554  D
C456        C667   1.449       .  S
In461       O463   2.226       .  S
In461       O464   2.281       .  S
In461       O472   2.278       .  S
In461       O466   2.283       .  S
In461       O468   2.234       .  S
In461       O469   2.233       .  S
In461       O470   2.232       .  S
In461       O473   2.264       .  S
C462        O468   1.259       .  A
C462        O470   1.264       .  A
C462        C671   1.428       .  S
O463        C471   1.266       .  A
O464        C471   1.259       .  A
C465        O472   1.262       .  A
C465        O466   1.259       .  A
C467        O469   1.259       .  A
C467        O473   1.262       .  A
C467        N627   1.432       .  S
C471        C746   1.520       .  S
C474        C700   1.525   1_545  S
C474        C478   1.563       .  S
C474        C477   1.514       .  S
C474        C515   1.515       .  S
C475        C668   1.479       .  S
C475        C479   1.534       .  S
C475        C481   1.522       .  S
C475        C480   1.553       .  S
C476        C698   1.526       .  S
C476        C484   1.376       .  A
C476        C479   1.390       .  A
C477        C488   1.363       .  A
C477        C704   1.400   1_545  A
C478        C492   1.399       .  A
C478        C705   1.413   1_545  A
C479        C482   1.379       .  A
C480        C701   1.404       .  A
C480        C486   1.400       .  A
C481        C702   1.414       .  A
C481        C489   1.370       .  A
C482        N483   1.362       .  A
C482        H495   1.082       .  S
N483        C615   1.434       .  S
N483        C484   1.357       .  A
C484        H709   1.083       .  S
H485        C708   1.083   1_545  S
C486        N711   1.360       .  A
C486        H496   1.083       .  S
N487        C710   1.357   1_545  A
N487        C488   1.333       .  A
N487        C665   1.391   1_556  S
C488        H494   1.083       .  S
C489        N714   1.336       .  A
C489        H491   1.084       .  S
N490        C713   1.338   1_545  A
N490        C492   1.362       .  A
N490        C663   1.405       .  S
C492        H493   1.083       .  S
C497        C498   1.555       .  S
C497        C503   1.517   1_556  S
C497        C501   1.532       .  S
C497        C659   1.489       .  S
C498        H505   1.083       .  S
C498        C499   1.390   1_556  D
C499        C500   1.548       .  S
C500        C504   1.553       .  S
C500        C502   1.533   1_554  S
C500        H506   1.107       .  S
C501        H507   1.088       .  S
C501        C502   1.365       .  D
C502        C661   1.439       .  S
C503        H508   1.088       .  S
C503        C504   1.353       .  D
C504        C658   1.450       .  S
In509       O511   2.267       .  S
In509       O512   2.240       .  S
In509       O520   2.278   1_655  S
In509       O514   2.275       .  S
In509       O516   2.239       .  S
In509       O517   2.244       .  S
In509       O518   2.236       .  S
In509       O521   2.276       .  S
C510        O516   1.260       .  A
C510        O518   1.266       .  A
C510        C662   1.431       .  S
O511        C519   1.263       .  A
O512        C519   1.259       .  A
C513        C660   1.457       .  S
C515        O517   1.268       .  A
C515        O521   1.257       .  A
C519        N579   1.435       .  S
C522        C695   1.521   1_545  S
C522        C524   1.536       .  S
C522        C526   1.529       .  S
C522        C525   1.561       .  S
C523        C657   1.479       .  S
C523        C527   1.528       .  S
C523        C529   1.547       .  S
C523        C528   1.514       .  S
C524        C532   1.378       .  A
C524        C527   1.396       .  A
C525        C536   1.397       .  A
C525        C528   1.396       .  A
C526        C540   1.367       .  A
C526        C529   1.410       .  A
C527        C530   1.372       .  A
C528        C534   1.368       .  A
C529        C537   1.392       .  A
C530        N531   1.357       .  A
C530        H543   1.083       .  S
N531        C563   1.431       .  S
N531        C532   1.361       .  A
C532        H533   1.082       .  S
C534        N535   1.340       .  A
C534        H544   1.082       .  S
N535        C536   1.365       .  A
N535        C664   1.404       .  S
C536        H766   1.082   1_545  S
C537        N538   1.357       .  A
C537        H539   1.083       .  S
N538        C540   1.334       .  A
N538        C666   1.393       .  S
C540        H765   1.083   1_545  S
H541        C764   1.080       .  S
H542        C760   1.078       .  S
C545        C546   1.525       .  S
C545        C551   1.521       .  S
C545        C549   1.553       .  S
C545        C653   1.481       .  S
C546        H553   1.089       .  S
C546        C547   1.357       .  D
C547        C548   1.532       .  S
C548        C552   1.549       .  S
C548        C550   1.547       .  S
C549        H555   1.083       .  S
C549        C550   1.389       .  D
C551        H556   1.088       .  S
C551        C552   1.358       .  D
C552        C651   1.445       .  S
In557       O559   2.209       .  S
In557       O560   2.297       .  S
In557       O568   2.267       .  S
In557       O562   2.260       .  S
In557       O564   2.210       .  S
In557       O565   2.232       .  S
In557       O566   2.240       .  S
In557       O569   2.242       .  S
C558        O564   1.253       .  A
C558        O566   1.262       .  A
C558        C655   1.419       .  S
O559        C567   1.258       .  A
O560        C567   1.260       .  A
C561        O568   1.265       .  A
C561        O562   1.259       .  A
C561        C654   1.451       .  S
C563        O565   1.265       .  A
C563        O569   1.265       .  A
C567        C619   1.511       .  S
C570        C572   1.530       .  S
C570        C574   1.562       .  S
C570        C573   1.521       .  S
C570        C611   1.507       .  S
C571        C652   1.474       .  S
C571        C575   1.531       .  S
C571        C577   1.522       .  S
C571        C576   1.548       .  S
C572        C580   1.380       .  A
C572        C575   1.392       .  A
C573        C584   1.369       .  A
C573        C576   1.403       .  A
C574        C588   1.399       .  A
C574        C577   1.412       .  A
C575        C578   1.377       .  A
C576        C582   1.398       .  A
C577        C585   1.371       .  A
C578        N579   1.359       .  A
C578        H591   1.083       .  S
N579        C580   1.358       .  A
C580        H581   1.082       .  S
C582        N583   1.358       .  A
C582        H592   1.083       .  S
N583        C584   1.334       .  A
N583        C649   1.400       .  S
C584        H590   1.081       .  S
C585        N586   1.338       .  A
C585        H587   1.083       .  S
N586        C588   1.360       .  A
N586        C648   1.404   1_655  S
C588        H589   1.082       .  S
C593        C818   1.553       .  S
C593        C599   1.516       .  S
C593        C597   1.534       .  S
C593        C644   1.486       .  S
C594        C817   1.553   1_545  S
C594        H601   1.083       .  S
C594        C595   1.390       .  D
C595        C820   1.549   1_545  S
C596        C819   1.547       .  S
C596        C600   1.555       .  S
C596        C598   1.534       .  S
C597        H603   1.088       .  S
C597        C598   1.365       .  D
C599        H604   1.088       .  S
C599        C600   1.352       .  D
C600        C642   1.450       .  S
In605       O607   2.260       .  S
In605       O608   2.241       .  S
In605       O616   2.269       .  S
In605       O610   2.280       .  S
In605       O612   2.246       .  S
In605       O613   2.240       .  S
In605       O614   2.243       .  S
In605       O617   2.254       .  S
C606        O612   1.258       .  A
C606        O614   1.265       .  A
C606        C646   1.434       .  S
O607        C615   1.264       .  A
O608        C615   1.259       .  A
C609        O616   1.262       .  A
C609        O610   1.261       .  A
C609        C643   1.455       .  S
C611        O613   1.268       .  A
C611        O617   1.258       .  A
C618        C641   1.478       .  S
C618        C620   1.536       .  S
C618        C622   1.506       .  S
C618        C621   1.550       .  S
C619        C623   1.537       .  S
C619        C625   1.554       .  S
C619        C624   1.538       .  S
C620        C628   1.374       .  A
C620        C623   1.406       .  A
C621        C632   1.396       .  A
C621        C624   1.414       .  A
C622        C636   1.367       .  A
C622        C625   1.380       .  A
C623        C626   1.384       .  A
C624        C630   1.370       .  A
C625        C633   1.394       .  A
C626        N627   1.357       .  A
C626        H639   1.082       .  S
N627        C628   1.354       .  A
C628        H629   1.083       .  S
C630        N631   1.336       .  A
C630        H640   1.082       .  S
N631        C632   1.360       .  A
N631        C650   1.401       .  S
C632        H638   1.083       .  S
C633        N634   1.365       .  A
C633        H635   1.080       .  S
N634        C636   1.342       .  A
N634        C647   1.404       .  S
C636        H637   1.081       .  S
C641        C642   1.212       .  T
C643        C644   1.217       .  T
C645        C646   1.205       .  T
C649        C650   1.205       .  T
C651        C652   1.208       .  T
C653        C654   1.215       .  T
C655        C656   1.196       .  T
C657        C658   1.212       .  T
C659        C660   1.219       .  T
C661        C662   1.203       .  T
C663        C664   1.209   1_556  T
C667        C668   1.211       .  T
C669        C670   1.219       .  T
C671        C672   1.201       .  T
C673        C674   1.530       .  S
C673        C679   1.521       .  S
C673        C677   1.553       .  S
C673        C893   1.486       .  S
C674        H681   1.088       .  S
C674        C675   1.362       .  D
C675        C676   1.532   1_554  S
C675        C896   1.434       .  S
C676        C680   1.552       .  S
C676        C678   1.546   1_556  S
C676        H682   1.108       .  S
C677        H683   1.083       .  S
C677        C678   1.389       .  D
C678        C723   1.518       .  S
C679        H684   1.087   1_554  S
C679        C680   1.357   1_554  D
C680        C891   1.453       .  S
In685       O687   2.251       .  S
In685       O688   2.277       .  S
In685       O696   2.272       .  S
In685       O690   2.277       .  S
In685       O692   2.228       .  S
In685       O693   2.235       .  S
In685       O694   2.232       .  S
In685       O697   2.269       .  S
C686        O692   1.259       .  A
C686        O694   1.265       .  A
C686        C895   1.426       .  S
O687        C695   1.267       .  A
O688        C695   1.257       .  A
C689        O696   1.262       .  A
C689        O690   1.259       .  A
C691        O693   1.260       .  A
C691        O697   1.262       .  A
C691        N851   1.434       .  S
C698        C702   1.565       .  S
C698        C701   1.518       .  S
C698        C739   1.512       .  S
C699        C892   1.481       .  S
C699        C703   1.533       .  S
C699        C705   1.524       .  S
C699        C704   1.545       .  S
C700        C708   1.372       .  A
C700        C703   1.394       .  A
C701        C712   1.367       .  A
C702        C716   1.401       .  A
C703        C706   1.375       .  A
C704        C710   1.393       .  A
C705        C713   1.370       .  A
C706        N707   1.361       .  A
C706        H719   1.082       .  S
N707        C839   1.428       .  S
N707        C708   1.355       .  A
C710        H720   1.082       .  S
N711        C712   1.333       .  A
N711        C889   1.400   1_556  S
C712        H718   1.082       .  S
C713        H715   1.083       .  S
N714        C716   1.362       .  A
N714        C887   1.405       .  S
C716        H717   1.081       .  S
C721        C722   1.552       .  S
C721        C727   1.517   1_556  S
C721        C725   1.533       .  S
C721        C883   1.489       .  S
C722        H729   1.083       .  S
C722        C723   1.388   1_556  D
C723        C724   1.548       .  S
C724        C728   1.556       .  S
C724        C726   1.535       .  S
C724        H730   1.108       .  S
C725        H731   1.088       .  S
C725        C726   1.366   1_556  D
C726        C885   1.440   1_554  S
C727        H732   1.088       .  S
C727        C728   1.354       .  D
C728        C882   1.451       .  S
In733       O735   2.279       .  S
In733       O736   2.251       .  S
In733       O744   2.276   1_655  S
In733       O738   2.279       .  S
In733       O740   2.243       .  S
In733       O741   2.243       .  S
In733       O742   2.243       .  S
In733       O745   2.267       .  S
C734        O740   1.258       .  A
C734        O742   1.266       .  A
C734        C886   1.433       .  S
O735        C743   1.263       .  A
O736        C743   1.259       .  A
C737        C884   1.457       .  S
C739        O741   1.268       .  A
C739        O745   1.257       .  A
C743        N803   1.440       .  S
C746        C748   1.538       .  S
C746        C750   1.541       .  S
C746        C749   1.559       .  S
C747        C881   1.480       .  S
C747        C751   1.531       .  S
C747        C753   1.549       .  S
C747        C752   1.508       .  S
C748        C756   1.382       .  A
C748        C751   1.397       .  A
C749        C760   1.395       .  A
C749        C752   1.386       .  A
C750        C764   1.374       .  A
C750        C753   1.415       .  A
C751        C754   1.373       .  A
C752        C758   1.365       .  A
C753        C761   1.396       .  A
C754        N755   1.357       .  A
C754        H767   1.083       .  S
N755        C787   1.434       .  S
N755        C756   1.362       .  A
C756        H757   1.082       .  S
C758        N759   1.340       .  A
C758        H768   1.081       .  S
N759        C760   1.367       .  A
N759        C888   1.404       .  S
C761        N762   1.358       .  A
C761        H763   1.083       .  S
N762        C764   1.334       .  A
N762        C890   1.400       .  S
C769        C770   1.526       .  S
C769        C775   1.518       .  S
C769        C773   1.546       .  S
C769        C877   1.473       .  S
C770        H777   1.089       .  S
C770        C771   1.357       .  D
C771        C772   1.533       .  S
C772        C776   1.552       .  S
C772        C774   1.548       .  S
C773        H779   1.083       .  S
C773        C774   1.386       .  D
C775        H780   1.088       .  S
C775        C776   1.357       .  D
C776        C875   1.445       .  S
In781       O783   2.224       .  S
In781       O784   2.293       .  S
In781       O792   2.256       .  S
In781       O786   2.249       .  S
In781       O788   2.212       .  S
In781       O789   2.238       .  S
In781       O790   2.236       .  S
In781       O793   2.249       .  S
C782        O788   1.254       .  A
C782        O790   1.263       .  A
C782        C879   1.420       .  S
O783        C791   1.260       .  A
O784        C791   1.260       .  A
C785        O792   1.265       .  A
C785        O786   1.259       .  A
C785        C878   1.443       .  S
C787        O789   1.264       .  A
C787        O793   1.264       .  A
C791        C843   1.517       .  S
C794        C796   1.533       .  S
C794        C798   1.562       .  S
C794        C797   1.521       .  S
C794        C835   1.506       .  S
C795        C876   1.475       .  S
C795        C799   1.535       .  S
C795        C801   1.521       .  S
C795        C800   1.551       .  S
C796        C804   1.384       .  A
C796        C799   1.393       .  A
C797        C808   1.370       .  A
C797        C800   1.404       .  A
C798        C812   1.400       .  A
C798        C801   1.410       .  A
C799        C802   1.380       .  A
C800        C806   1.400       .  A
C801        C809   1.372       .  A
C802        N803   1.360       .  A
C802        H815   1.083       .  S
N803        C804   1.359       .  A
C804        H805   1.082       .  S
C806        N807   1.359       .  A
C806        H816   1.083       .  S
N807        C808   1.332       .  A
N807        C873   1.400       .  S
C808        H814   1.082       .  S
C809        N810   1.338       .  A
C809        H811   1.084       .  S
N810        C812   1.360       .  A
N810        C872   1.405   1_655  S
C812        H813   1.082       .  S
C817        C823   1.516       .  S
C817        C821   1.533       .  S
C817        C868   1.486       .  S
C818        H825   1.083       .  S
C818        C819   1.388       .  D
C820        C824   1.556       .  S
C820        C822   1.533       .  S
C821        H827   1.088       .  S
C821        C822   1.364       .  D
C823        H828   1.088       .  S
C823        C824   1.353       .  D
C824        C866   1.449       .  S
In829       O831   2.248       .  S
In829       O832   2.225       .  S
In829       O840   2.269       .  S
In829       O834   2.279       .  S
In829       O836   2.245       .  S
In829       O837   2.242       .  S
In829       O838   2.241       .  S
In829       O841   2.245       .  S
C830        O836   1.259       .  A
C830        O838   1.264       .  A
C830        C870   1.433       .  S
O831        C839   1.264       .  A
O832        C839   1.258       .  A
C833        O840   1.263       .  A
C833        O834   1.261       .  A
C833        C867   1.455       .  S
C835        O837   1.269       .  A
C835        O841   1.258       .  A
C842        C865   1.479       .  S
C842        C844   1.534       .  S
C842        C846   1.504       .  S
C842        C845   1.550       .  S
C843        C847   1.539       .  S
C843        C849   1.558       .  S
C843        C848   1.541       .  S
C844        C852   1.373       .  A
C844        C847   1.406       .  A
C845        C856   1.396       .  A
C845        C848   1.415       .  A
C846        C860   1.366       .  A
C846        C849   1.382       .  A
C847        C850   1.387       .  A
C848        C854   1.370       .  A
C849        C857   1.395       .  A
C850        N851   1.358       .  A
C850        H863   1.082       .  S
N851        C852   1.352       .  A
C852        H853   1.083       .  S
C854        N855   1.337       .  A
C854        H864   1.081       .  S
N855        C856   1.360       .  A
N855        C874   1.401       .  S
C856        H862   1.083       .  S
C857        N858   1.367       .  A
C857        H859   1.082       .  S
N858        C860   1.342       .  A
N858        C871   1.405       .  S
C860        H861   1.081       .  S
C865        C866   1.211       .  T
C867        C868   1.218       .  T
C869        C870   1.204       .  T
C873        C874   1.206       .  T
C875        C876   1.209       .  T
C877        C878   1.210       .  T
C879        C880   1.197       .  T
C881        C882   1.212       .  T
C883        C884   1.219       .  T
C885        C886   1.204       .  T
C887        C888   1.209   1_556  T
C891        C892   1.213       .  T
C893        C894   1.217       .  T
C895        C896   1.200       .  T
