geometry optimzed in LAMMPS
_audit_creation_date              2020-12-01 
_audit_creation_method            'lammps2cif' 
_symmetry_space_group_name_H-M    'P1' 
_symmetry_Int_Tables_number       1 
_symmetry_cell_setting            triclinic 
loop_ 
_symmetry_equiv_pos_as_xyz 
  x,y,z 
_cell_length_a                    43.26274445 
_cell_length_b                    46.37603815115237 
_cell_length_c                    44.00206236388176 
_cell_angle_alpha                 89.93748472242103 
_cell_angle_beta                  89.27802333672564 
_cell_angle_gamma                 91.58198106878031 
loop_ 
_atom_site_label 
_atom_site_type_symbol 
_atom_site_fract_x 
_atom_site_fract_y 
_atom_site_fract_z 
_atom_site_charge 
C1          C  0.46192023  0.25495742  0.13265412     0.29400
C2          C  0.50602215  0.21455995  0.13491426     0.29400
C3          C  0.45056902  0.22325759  0.12992890    -0.06800
C4          C  0.48531693  0.25645546  0.10546219    -0.07500
C5          C  0.48393329  0.25684534  0.15980357    -0.07400
C6          C  0.47286746  0.20299514  0.13151159    -0.06800
C7          C  0.50881150  0.23511909  0.10686841    -0.07500
C8          C  0.50538726  0.23553749  0.16166522    -0.07400
C9          C  0.45826685  0.17631438  0.13088060    -0.32800
N10         N  0.42703413  0.17942777  0.13054758     0.13700
C11         C  0.42275990  0.20834938  0.12687084    -0.32800
H12         H  0.40071407  0.21865661  0.12602093     0.15600
C13         C  0.51589123  0.22806697  0.07709153    -0.31800
N14         N  0.49881998  0.24385068  0.05816009     0.12400
C15         C  0.47970365  0.26051799  0.07472095    -0.31800
C16         C  0.53062807  0.24717350  0.17682965    -0.32100
N17         N  0.52685020  0.27561138  0.18225492     0.12900
H18         H  0.55110111  0.23538203  0.18162479     0.15500
C19         C  0.49828196  0.28151493  0.17191078    -0.32100
H20         H  0.48964833  0.30304232  0.16990556     0.15500
H21         H  0.46135691  0.27296015  0.06522550     0.15500
H22         H  0.47015292  0.15655773  0.13424899     0.15600
H23         H  0.53030210  0.21066324  0.06965946     0.15500
C24         C  0.00295767  0.02367500  0.13597530     0.29400
C25         C  0.04697601  0.48291147  0.11889478     0.29400
C26         C  0.00603348  0.49818694  0.15492113    -0.06800
C27         C  0.99772776  0.00952498  0.10429945    -0.07500
C28         C  0.03712592  0.03248343  0.13331471    -0.07400
C29         C  0.02557555  0.47619354  0.14670198    -0.06800
C30         C  0.02353028  0.49189737  0.09498326    -0.07500
C31         C  0.05751014  0.01043276  0.12745034    -0.07400
C32         C  0.01099003  0.45108897  0.15792241    -0.32800
N33         N  0.98400086  0.45747922  0.17197743     0.13700
C34         C  0.98146348  0.48633105  0.17102347    -0.32800
H35         H  0.96210455  0.49811561  0.17979486     0.15600
C36         C  0.01980985  0.48620557  0.06474225    -0.31800
N37         N  0.99336122  0.99738238  0.05549850     0.12400
C38         C  0.98343532  0.01604075  0.07714290    -0.31800
C39         C  0.08569342  0.02071842  0.13860308    -0.32100
N40         N  0.08283504  0.04792106  0.14929215     0.14500
H41         H  0.10583979  0.00833362  0.14305169     0.15500
C42         C  0.05363596  0.05591442  0.14423880    -0.32100
H43         H  0.04379391  0.07531091  0.15345059     0.15500
H44         H  0.96887024  0.03407687  0.07263828     0.15500
H45         H  0.01808154  0.42927742  0.15459659     0.15600
H46         H  0.03284171  0.47138116  0.05097528     0.15500
C47         C  0.48147830  0.24385725  0.44671268     0.29400
C48         C  0.53028832  0.28235760  0.45652544     0.29400
C49         C  0.47513409  0.27598152  0.44225291    -0.06800
C50         C  0.49523306  0.23523882  0.97668657    -0.07500
C51         C  0.51126100  0.23917494  0.42853981    -0.07400
C52         C  0.49971359  0.29551068  0.44522677    -0.06800
C53         C  0.52081330  0.25495025  0.98055041    -0.07500
C54         C  0.53576449  0.25835188  0.43286285    -0.07400
C55         C  0.48903792  0.32150901  0.43396380    -0.32800
N56         N  0.45882256  0.31807811  0.42584011     0.13700
C57         C  0.45006384  0.29060312  0.43238126    -0.32800
H58         H  0.42766247  0.28100551  0.42717227     0.15600
C59         C  0.52435724  0.25931605  0.01121374    -0.31800
N60         N  0.50222189  0.24388800  0.02629631     0.12400
C61         C  0.48355871  0.23021036  0.00595788    -0.31800
C62         C  0.56034741  0.24742491  0.41636010    -0.32100
N63         N  0.55127619  0.22239948  0.40287589     0.12900
H64         H  0.58365261  0.25602213  0.41473415     0.15500
C65         C  0.52135451  0.21698300  0.41045138    -0.32100
H66         H  0.50805917  0.19795792  0.40377748     0.15500
H67         H  0.46196666  0.21915109  0.01184384     0.15500
H68         H  0.50261660  0.34104296  0.43035343     0.15600
H69         H  0.54002726  0.27479377  0.02174193     0.15500
C70         C  0.96277097  0.48996612  0.44693446     0.29400
C71         C  0.00152448  0.03465346  0.44795063     0.29400
C72         C  0.94621870  0.01887216  0.44827963    -0.06800
C73         C  0.97142051  0.48810498  0.97988003    -0.07500
C74         C  0.98460083  0.49145666  0.41918709    -0.07400
C75         C  0.96714858  0.04191911  0.45009037    -0.06800
C76         C  0.99881011  0.00729087  0.97541266    -0.07500
C77         C  0.00578436  0.51428231  0.41914626    -0.07400
C78         C  0.95116775  0.06692654  0.44781530    -0.32800
N79         N  0.92172820  0.06040333  0.43917967     0.13700
C80         C  0.91925446  0.03103329  0.43821350    -0.32800
H81         H  0.90144568  0.01946196  0.42601982     0.15600
C82         C  0.00467604  0.01616558  0.00474958    -0.31800
N83         N  0.98797383  0.99922303  0.02419357     0.12400
C84         C  0.96975933  0.48457414  0.01090164    -0.31800
C85         C  0.03107346  0.50568306  0.40237066    -0.32100
N86         N  0.02492423  0.47951530  0.38997968     0.12900
H87         H  0.05343815  0.51671795  0.40151645     0.15500
C88         C  0.99654791  0.47064365  0.40005104    -0.32100
H89         H  0.98645339  0.44959506  0.39537865     0.15500
H90         H  0.95506994  0.46935099  0.02339036     0.15500
H91         H  0.96195626  0.08817390  0.44825861     0.15600
H92         H  0.01898700  0.03447705  0.01153930     0.15500
Fe93       Fe  0.60731234  0.33177939  0.32853734     1.65800
Fe94       Fe  0.62405177  0.39810578  0.35216289     1.73200
Fe95       Fe  0.66040402  0.37288284  0.28894363     1.54400
O96         O  0.67569150  0.33006033  0.28983518    -0.82200
O97         O  0.63939038  0.43261492  0.32636765    -0.80500
O98         O  0.64268933  0.30471069  0.31914740    -0.84700
O99         O  0.59520702  0.33146769  0.28314700    -0.79600
O100        O  0.69336949  0.38410438  0.32142478    -0.81400
O101        O  0.57972380  0.40166811  0.33345087    -0.84100
C102        C  0.60495685  0.34242868  0.25814977     0.96600
C103        C  0.66626575  0.30636162  0.30197488     1.04100
O104        O  0.63111061  0.36741475  0.32269077    -1.13100
O105        O  0.60644232  0.37197856  0.38722070    -0.75500
O106        O  0.61860808  0.32815378  0.37384457    -0.79000
O107        O  0.62822765  0.35996897  0.25616301    -0.79700
C108        C  0.60986521  0.34572908  0.39388887     0.95600
O109        O  0.56854740  0.35521620  0.33938455    -0.77700
O110        O  0.66928947  0.39206531  0.36676910    -0.82900
C111        C  0.64592750  0.43761748  0.29887094     0.98200
C112        C  0.69348987  0.38711610  0.35045963     1.04100
O113        O  0.65019047  0.41675461  0.28059401    -0.78500
C114        C  0.56147718  0.37981540  0.32937107     1.02400
Fe115      Fe  0.60428291  0.15881823  0.25121925     1.65800
Fe116      Fe  0.62555755  0.09658461  0.22166106     1.73200
Fe117      Fe  0.66514669  0.12451843  0.28114211     1.54400
O118        O  0.67993114  0.16786795  0.27539482    -0.82200
O119        O  0.64660732  0.06455047  0.24511981    -0.80500
O120        O  0.63803705  0.18972016  0.25884657    -0.84700
O121        O  0.59549381  0.15551265  0.29664813    -0.79600
O122        O  0.69519131  0.11314720  0.24581051    -0.81400
O123        O  0.58318070  0.08614306  0.24365108    -0.84100
C124        C  0.61241146  0.15095175  0.31935293     0.96600
C125        C  0.66553630  0.19056289  0.26835353     1.04100
O126        O  0.63196005  0.12691208  0.25189600    -1.13100
O127        O  0.60195083  0.12127170  0.19079135    -0.75500
O128        O  0.61222692  0.16551416  0.20551893    -0.79000
O129        O  0.63815735  0.13822648  0.31780620    -0.79700
C130        C  0.60073856  0.14813285  0.18659051     0.95600
O131        O  0.56611200  0.13121407  0.24512575    -0.77700
O132        O  0.66845382  0.10830073  0.20223497    -0.82900
C133        C  0.65053362  0.05989445  0.27300576     0.98200
C134        C  0.69381459  0.11200224  0.21674042     1.04100
O135        O  0.65370863  0.08082997  0.29161346    -0.78500
C136        C  0.56211614  0.10424184  0.24982053     1.02400
Fe137      Fe  0.39372696  0.33574932  0.27036593     1.65800
Fe138      Fe  0.38491658  0.39706836  0.23054244     1.73200
Fe139      Fe  0.33633782  0.37717860  0.28970685     1.54400
O140        O  0.32530867  0.33226863  0.29481586    -0.82200
O141        O  0.37875614  0.43353036  0.25631640    -0.80500
O142        O  0.35543097  0.31115245  0.26086475    -0.84700
O143        O  0.38384706  0.33499495  0.31666450    -0.79600
O144        O  0.30894657  0.37804937  0.25236034    -0.81400
O145        O  0.43167214  0.39666783  0.24630245    -0.84100
C146        C  0.38118354  0.35632953  0.33436483     0.96600
C147        C  0.33277625  0.31014785  0.27923903     1.04100
O148        O  0.37157436  0.37049639  0.26292658    -1.13100
O149        O  0.39238895  0.36540996  0.19800420    -0.75500
O150        O  0.40860587  0.32973370  0.22628174    -0.79000
O151        O  0.36474283  0.37747812  0.32736160    -0.79700
C152        C  0.40380589  0.34078783  0.20052083     0.95600
O153        O  0.43122180  0.36016791  0.27990668    -0.77700
O154        O  0.33887423  0.39766354  0.21473062    -0.82900
C155        C  0.35877351  0.44063976  0.27598103     0.98200
C156        C  0.31290037  0.38764605  0.22538679     1.04100
O157        O  0.34070526  0.42215626  0.28880267    -0.78500
C158        C  0.44439685  0.38189761  0.26737685     1.02400
Fe159      Fe  0.40046557  0.16348886  0.29653500     1.65800
Fe160      Fe  0.38378105  0.10993504  0.34692198     1.73200
Fe161      Fe  0.33371564  0.12557468  0.28930472     1.54400
O162        O  0.32546907  0.17020645  0.28532236    -0.82200
O163        O  0.37205906  0.07154649  0.32656373    -0.80500
O164        O  0.36716635  0.19326455  0.30405891    -0.84700
O165        O  0.38857789  0.16015272  0.25119584    -0.79600
O166        O  0.30865194  0.12608299  0.32892667    -0.81400
O167        O  0.42953376  0.10472300  0.32877543    -0.84100
C168        C  0.37356729  0.14194312  0.23538411     0.96600
C169        C  0.33936701  0.19303569  0.29511626     1.04100
O170        O  0.37248672  0.13270975  0.31107857    -1.13100
O171        O  0.39628449  0.14514801  0.37330282    -0.75500
O172        O  0.41838883  0.17324037  0.33854524    -0.79000
O173        O  0.35473859  0.12375121  0.24708552    -0.79700
C174        C  0.41196894  0.16746743  0.36602967     0.95600
O175        O  0.43417396  0.13449873  0.28865068    -0.77700
O176        O  0.33933663  0.11330830  0.36699154    -0.82900
C177        C  0.35402949  0.06350285  0.30561680     0.98200
C178        C  0.31318150  0.12076069  0.35673475     1.04100
O179        O  0.33766109  0.08086256  0.29074186    -0.78500
C180        C  0.44386964  0.11388865  0.30463174     1.02400
Fe181      Fe  0.10317988  0.42123266  0.24196672     1.65800
Fe182      Fe  0.12151152  0.35676152  0.21790586     1.73200
Fe183      Fe  0.15567468  0.38346687  0.28088206     1.54400
O184        O  0.17249092  0.42613629  0.27844922    -0.82200
O185        O  0.14032977  0.32441546  0.24274057    -0.80500
O186        O  0.13814376  0.45105155  0.25261377    -0.84700
O187        O  0.08955914  0.42100377  0.28599824    -0.79600
O188        O  0.18879770  0.37217542  0.24808530    -0.81400
O189        O  0.07833768  0.34868466  0.23905449    -0.84100
C190        C  0.10024915  0.41333538  0.31129965     0.96600
C191        C  0.16231452  0.44987533  0.26867630     1.04100
O192        O  0.12744652  0.38760930  0.24749061    -1.13100
O193        O  0.10175318  0.38162180  0.18366421    -0.75500
O194        O  0.11649032  0.42524130  0.19711936    -0.79000
O195        O  0.12364935  0.39720702  0.31402209    -0.79700
C196        C  0.10738383  0.40781655  0.17694751     0.95600
O197        O  0.06498407  0.39393761  0.23256663    -0.77700
O198        O  0.16590086  0.36703147  0.20206290    -0.82900
C199        C  0.14277009  0.31915023  0.27058403     0.98200
C200        C  0.18978250  0.37088148  0.21885383     1.04100
O201        O  0.14307487  0.33978517  0.28966970    -0.78500
C202        C  0.05949522  0.36893915  0.24419888     1.02400
Fe203      Fe  0.11148636  0.09311123  0.32253326     1.65800
Fe204      Fe  0.12547063  0.15732832  0.35574559     1.73200
Fe205      Fe  0.17159637  0.13453583  0.29713286     1.54400
O206        O  0.18354043  0.09051321  0.29753892    -0.82200
O207        O  0.14446108  0.19304348  0.33409264    -0.80500
O208        O  0.14900241  0.06754745  0.32734500    -0.84700
O209        O  0.11672445  0.09091253  0.27645506    -0.79600
O210        O  0.19856128  0.14224726  0.33483726    -0.81400
O211        O  0.08328292  0.16321798  0.33258745    -0.84100
C212        C  0.12977108  0.10387264  0.25420991     0.96600
C213        C  0.17251763  0.06737665  0.30984443     1.04100
O214        O  0.13614372  0.12847418  0.32499514    -1.13100
O215        O  0.10162975  0.13103344  0.38665642    -0.75500
O216        O  0.10320184  0.08709922  0.36827263    -0.79000
O217        O  0.14731607  0.12592121  0.25779917    -0.79700
C218        C  0.09524819  0.10444816  0.38866107     0.95600
O219        O  0.07260322  0.11786223  0.31634850    -0.77700
O220        O  0.16830774  0.14936358  0.37643946    -0.82900
C221        C  0.15536020  0.19862187  0.30801996     0.98200
C222        C  0.19457827  0.14439602  0.36357510     1.04100
O223        O  0.16388654  0.17865227  0.29027806    -0.78500
C224        C  0.06612743  0.14460586  0.31832040     1.02400
Fe225      Fe  0.90683678  0.41366458  0.31852480     1.65800
Fe226      Fe  0.88590042  0.35101651  0.34833301     1.73200
Fe227      Fe  0.84728451  0.37605114  0.28707377     1.54400
O228        O  0.83264529  0.41838301  0.29085523    -0.82200
O229        O  0.86837606  0.31668352  0.32383596    -0.80500
O230        O  0.87593537  0.44239022  0.30272967    -0.84700
O231        O  0.92098212  0.40516502  0.27478182    -0.79600
O232        O  0.81558828  0.36484114  0.32106759    -0.81400
O233        O  0.93062393  0.34438037  0.32822212    -0.84100
C234        C  0.90572064  0.39806148  0.25123029     0.96600
C235        C  0.84814428  0.44173090  0.29434829     1.04100
O236        O  0.87915320  0.38038925  0.31762733    -1.13100
O237        O  0.90367286  0.38008545  0.38067278    -0.75500
O238        O  0.89286680  0.42299082  0.36214551    -0.79000
O239        O  0.87779621  0.38832769  0.25195447    -0.79700
C240        C  0.90021070  0.40704303  0.38417340     0.95600
O241        O  0.94201351  0.38968614  0.33531483    -0.77700
O242        O  0.84113691  0.35867823  0.36508946    -0.82900
C243        C  0.86028193  0.31231634  0.29673063     0.98200
C244        C  0.81633211  0.36271940  0.35003448     1.04100
O245        O  0.85652438  0.33293372  0.27825111    -0.78500
C246        C  0.94985455  0.36567997  0.32496137     1.02400
Fe247      Fe  0.90462866  0.09501137  0.27867624     1.65800
Fe248      Fe  0.88614670  0.14584717  0.22820605     1.73200
Fe249      Fe  0.83541617  0.12505338  0.28543243     1.54400
O250        O  0.83046452  0.07949672  0.28749242    -0.82200
O251        O  0.87299513  0.18257485  0.24970091    -0.80500
O252        O  0.87468743  0.06172738  0.26926976    -0.84700
O253        O  0.88970556  0.09452731  0.32322509    -0.79600
O254        O  0.81176968  0.12258890  0.24597601    -0.81400
O255        O  0.93190918  0.15371869  0.24532384    -0.84100
C256        C  0.87264625  0.10995281  0.33959632     0.96600
C257        C  0.84645494  0.05863396  0.27718151     1.04100
O258        O  0.87507632  0.12222535  0.26398498    -1.13100
O259        O  0.90067809  0.11194863  0.20155158    -0.75500
O260        O  0.92590737  0.08940813  0.23709142    -0.79000
O261        O  0.85396741  0.12736791  0.32839812    -0.79700
C262        C  0.92116217  0.09469056  0.20929629     0.95600
O263        O  0.93479610  0.12830768  0.28856984    -0.77700
O264        O  0.84197121  0.13982570  0.20824786    -0.82900
C265        C  0.85345427  0.18956265  0.26988581     0.98200
C266        C  0.81621270  0.12927171  0.21841596     1.04100
O267        O  0.83697540  0.17062714  0.28435709    -0.78500
C268        C  0.94569861  0.14713124  0.27010176     1.02400
C269        C  0.85507058  0.28182433  0.28730284    -0.06700
C270        C  0.83833289  0.26305361  0.30701662    -0.17800
C271        C  0.83570208  0.23316849  0.30149701     0.10500
C272        C  0.85102226  0.22136432  0.27592164    -0.06600
C273        C  0.86641895  0.24069876  0.25547299    -0.17800
C274        C  0.86850977  0.27052917  0.26079141     0.10500
S275        S  0.81374420  0.21087664  0.32815686    -0.32800
S276        S  0.89065212  0.29352122  0.23488685    -0.32800
H277        H  0.89511430  0.27278861  0.21205489     0.28600
H278        H  0.79775829  0.23340749  0.34217651     0.28500
H279        H  0.82781299  0.27185958  0.32731741     0.19100
H280        H  0.87780532  0.23238471  0.23542493     0.19100
C281        C  0.83308639  0.02890988  0.27652882    -0.06700
C282        C  0.81722408  0.01874590  0.30263349    -0.17800
C283        C  0.82375434  0.48837434  0.30883652     0.10500
C284        C  0.83535109  0.46975855  0.28634971    -0.06600
C285        C  0.84539622  0.48135410  0.25845439    -0.17800
C286        C  0.84131968  0.00880562  0.25365374     0.10500
S287        S  0.81067972  0.47526665  0.34535005    -0.32800
S288        S  0.86165753  0.01832970  0.21871732    -0.32800
H289        H  0.85658404  0.04799330  0.21908740     0.28600
H290        H  0.80055192  0.44839519  0.33398322     0.28500
H291        H  0.81058769  0.03380046  0.32021336     0.19100
H292        H  0.85474017  0.46717529  0.24127322     0.19100
C293        C  0.03747129  0.15337853  0.30214289    -0.06700
C294        C  0.01475818  0.16965702  0.31678638    -0.17800
C295        C  0.98517617  0.17246875  0.30395728     0.10500
C296        C  0.97762433  0.15794827  0.27661178    -0.06600
C297        C  0.00137294  0.14496252  0.26035742    -0.17800
C298        C  0.03107034  0.14291634  0.27248210     0.10500
S299        S  0.95812660  0.19536330  0.32287625    -0.32800
S300        S  0.06016752  0.12585171  0.24982505    -0.32800
H301        H  0.04427128  0.12587941  0.22211929     0.28600
H302        H  0.93688791  0.19639302  0.29898316     0.28500
H303        H  0.01951671  0.17913155  0.33878515     0.19100
H304        H  0.99591941  0.13404549  0.23925275     0.19100
C305        C  0.03199354  0.36527983  0.26559014    -0.06700
C306        C  0.02158685  0.39053237  0.27937146    -0.17800
C307        C  0.99782649  0.39046582  0.30106565     0.10500
C308        C  0.98056062  0.36456466  0.30800441    -0.06600
C309        C  0.99147632  0.33875421  0.29521183    -0.17800
C310        C  0.01729616  0.33875662  0.27478940     0.10500
S311        S  0.99185669  0.42499433  0.31887481    -0.32800
S312        S  0.02880209  0.30453098  0.25987573    -0.32800
H313        H  0.03244510  0.31459021  0.22984034     0.28600
H314        H  0.99182734  0.41346729  0.34848584     0.28500
H315        H  0.03276446  0.41108067  0.27390711     0.19100
H316        H  0.97929162  0.31857496  0.30028724     0.19100
C317        C  0.14623098  0.28804125  0.27991344    -0.06700
C318        C  0.15780979  0.28150250  0.30875562    -0.17800
C319        C  0.16294297  0.25286445  0.31773590     0.10500
C320        C  0.15593585  0.22952478  0.29789265    -0.06600
C321        C  0.14483274  0.23592462  0.26901568    -0.17800
C322        C  0.13973629  0.26448428  0.25977637     0.10500
S323        S  0.17975918  0.24759619  0.35445458    -0.32800
S324        S  0.12291308  0.26946323  0.22270590    -0.32800
H325        H  0.12804386  0.24163555  0.21133521     0.28600
H326        H  0.19679592  0.22374136  0.34511368     0.28500
H327        H  0.16357786  0.29887245  0.32430566     0.19100
H328        H  0.13859518  0.21820471  0.25409625     0.19100
C329        C  0.17665068  0.47770175  0.27934768    -0.06700
C330        C  0.18559821  0.49941027  0.25843524    -0.17800
C331        C  0.18857002  0.03082538  0.27010066     0.10500
C332        C  0.18403598  0.03839490  0.30102369    -0.06600
C333        C  0.18123677  0.01602344  0.32252239    -0.17800
C334        C  0.17548920  0.48501347  0.31054356     0.10500
S335        S  0.19640241  0.05809529  0.24146777    -0.32800
S336        S  0.16766506  0.45862595  0.33985855    -0.32800
H337        H  0.19117046  0.44039343  0.32990432     0.28600
H338        H  0.19249527  0.04012309  0.21599368     0.28500
H339        H  0.18755067  0.49386891  0.23460483     0.19100
H340        H  0.17821019  0.02133765  0.34634043     0.19100
C341        C  0.22256433  0.13814988  0.38124710    -0.06700
C342        C  0.23146443  0.10918694  0.38061032    -0.17800
C343        C  0.26271675  0.10198798  0.37802524     0.10500
C344        C  0.28576893  0.12409507  0.37679910    -0.06600
C345        C  0.27710184  0.15246296  0.38317386    -0.17800
C346        C  0.24581276  0.15970599  0.38523442     0.10500
S347        S  0.27140783  0.06479079  0.37083916    -0.32800
S348        S  0.23700959  0.19727334  0.38833762    -0.32800
H349        H  0.20596330  0.19259535  0.39732560     0.28600
H350        H  0.30262424  0.06721461  0.37923729     0.28500
H351        H  0.21394995  0.09230774  0.37746774     0.19100
H352        H  0.29453940  0.16963591  0.38270887     0.19100
C353        C  0.28498964  0.38602944  0.20656581    -0.06700
C354        C  0.27286482  0.35809969  0.20118944    -0.17800
C355        C  0.24088265  0.35245552  0.20111105     0.10500
C356        C  0.22061908  0.37548061  0.20489699    -0.06600
C357        C  0.23282426  0.40387374  0.20505513    -0.17800
C358        C  0.26481368  0.40937942  0.20609495     0.10500
S359        S  0.22755639  0.31525917  0.20140467    -0.32800
S360        S  0.27813648  0.44604932  0.21226624    -0.32800
H361        H  0.30816646  0.44218063  0.20071828     0.28600
H362        H  0.19760720  0.32044014  0.19109426     0.28500
H363        H  0.28828021  0.34010953  0.20132639     0.19100
H364        H  0.21735555  0.42168107  0.20809054     0.19100
C365        C  0.32405358  0.22121592  0.29457249    -0.06700
C366        C  0.31483023  0.23197564  0.26643308    -0.17800
C367        C  0.31248804  0.26172531  0.26168623     0.10500
C368        C  0.31904618  0.28116557  0.28563569    -0.06600
C369        C  0.32304748  0.27004679  0.31492650    -0.17800
C370        C  0.32581470  0.24031650  0.31961533     0.10500
S371        S  0.30425390  0.27398852  0.22389071    -0.32800
S372        S  0.33437066  0.22841984  0.35756286    -0.32800
H373        H  0.32743676  0.19906774  0.35265366     0.28600
H374        H  0.29269501  0.30045939  0.23372643     0.28500
H375        H  0.31250810  0.21753857  0.24729472     0.19100
H376        H  0.32779273  0.28467342  0.33360432     0.19100
C377        C  0.35612290  0.47193284  0.28309858    -0.06700
C378        C  0.35957277  0.49196285  0.25910259    -0.17800
C379        C  0.36292787  0.02255431  0.26923792     0.10500
C380        C  0.35327807  0.03252338  0.29799743    -0.06600
C381        C  0.34597949  0.01239386  0.32102892    -0.17800
C382        C  0.35039044  0.48248063  0.31274712     0.10500
S383        S  0.37458309  0.04660189  0.23864868    -0.32800
S384        S  0.34657605  0.45922692  0.34548655    -0.32800
H385        H  0.37039179  0.44091591  0.33644622     0.28600
H386        H  0.38942422  0.06738424  0.25707223     0.28500
H387        H  0.36372780  0.48431464  0.23618554     0.19100
H388        H  0.33916265  0.01997674  0.34336227     0.19100
C389        C  0.53203048  0.09524766  0.26422158    -0.06700
C390        C  0.52937936  0.09803482  0.29604322    -0.17800
C391        C  0.50043300  0.10074090  0.31071890     0.10500
C392        C  0.47320776  0.10104784  0.29333816    -0.06600
C393        C  0.47577422  0.09576565  0.26186298    -0.17800
C394        C  0.50459599  0.09290171  0.24723854     0.10500
S395        S  0.50006743  0.10810549  0.35084656    -0.32800
S396        S  0.50478070  0.08907495  0.20646547    -0.32800
H397        H  0.53483435  0.07853828  0.20380850     0.28600
H398        H  0.47550604  0.08847424  0.35723102     0.28500
H399        H  0.55020332  0.10058164  0.30933592     0.19100
H400        H  0.45516333  0.09596647  0.24809766     0.19100
C401        C  0.72378910  0.11571159  0.20040183    -0.06700
C402        C  0.74323056  0.09214628  0.19911216    -0.17800
C403        C  0.77542252  0.09631100  0.19766674     0.10500
C404        C  0.78872157  0.12450292  0.19908528    -0.06600
C405        C  0.76921193  0.14787893  0.19533668    -0.17800
C406        C  0.73680273  0.14364503  0.19577349     0.10500
S407        S  0.79861545  0.06483510  0.19881299    -0.32800
S408        S  0.71208198  0.17420649  0.19445806    -0.32800
H409        H  0.73558462  0.19506522  0.18837932     0.28600
H410        H  0.82561313  0.07907404  0.18769393     0.28500
H411        H  0.73353107  0.07053377  0.20227087     0.19100
H412        H  0.77906144  0.16957658  0.19626965     0.19100
C413        C  0.53186366  0.38190443  0.31220006    -0.06700
C414        C  0.51719771  0.40853779  0.30877122    -0.17800
C415        C  0.48924005  0.41067623  0.29258349     0.10500
C416        C  0.47696091  0.38615341  0.27724278    -0.06600
C417        C  0.49273196  0.36025236  0.27941959    -0.17800
C418        C  0.51830085  0.35720855  0.29785661     0.10500
S419        S  0.46921264  0.44415661  0.29526296    -0.32800
S420        S  0.53076738  0.32060929  0.30364703    -0.32800
H421        H  0.51860713  0.30864976  0.27680293     0.28600
H422        H  0.45228437  0.44104791  0.26849360     0.28500
H423        H  0.52668924  0.42749501  0.32003188     0.19100
H424        H  0.48303677  0.34116177  0.26850479     0.19100
C425        C  0.72332011  0.38137630  0.36499203    -0.06700
C426        C  0.73202560  0.35245981  0.36522665    -0.17800
C427        C  0.76317151  0.34498383  0.36505707     0.10500
C428        C  0.78635807  0.36690627  0.36563956    -0.06600
C429        C  0.77749042  0.39559619  0.37007283    -0.17800
C430        C  0.74621992  0.40312055  0.36927732     0.10500
S431        S  0.77191899  0.30754039  0.35956794    -0.32800
S432        S  0.73718980  0.44081026  0.36991847    -0.32800
H433        H  0.70629854  0.43673792  0.37960667     0.28600
H434        H  0.80249980  0.30982497  0.36993031     0.28500
H435        H  0.71450876  0.33575037  0.36202674     0.19100
H436        H  0.79516776  0.41254170  0.37079447     0.19100
C437        C  0.67998345  0.27847389  0.29296518    -0.06700
C438        C  0.67857627  0.27120974  0.26203587    -0.17800
C439        C  0.67708794  0.24220884  0.25260953     0.10500
C440        C  0.67903541  0.21982085  0.27429464    -0.06600
C441        C  0.68494161  0.22724220  0.30461842    -0.17800
C442        C  0.68475337  0.25611045  0.31427403     0.10500
S443        S  0.66910463  0.23398397  0.21335489    -0.32800
S444        S  0.68755133  0.26256721  0.35451478    -0.32800
H445        H  0.69535968  0.29190336  0.35176462     0.28600
H446        H  0.67206470  0.26240109  0.20227463     0.28500
H447        H  0.67458586  0.28809151  0.24564501     0.19100
H448        H  0.68608073  0.21032451  0.32155891     0.19100
C449        C  0.64782061  0.46916707  0.28930259    -0.06700
C450        C  0.63542346  0.48997212  0.30932026    -0.17800
C451        C  0.66804129  0.01750652  0.30631033     0.10500
C452        C  0.65037184  0.02869091  0.28240870    -0.06600
C453        C  0.63219943  0.00897647  0.26522991    -0.17800
C454        C  0.66160999  0.47962903  0.26188605     0.10500
S455        S  0.69310636  0.03991320  0.32924880    -0.32800
S456        S  0.67987351  0.45636327  0.23476300    -0.32800
H457        H  0.69713168  0.44212845  0.25683668     0.28600
H458        H  0.70466786  0.05663101  0.30472150     0.28500
H459        H  0.62436171  0.48300654  0.33039490     0.19100
H460        H  0.61793672  0.01691332  0.24713409     0.19100
C461        C  0.02362742  0.06001550  0.43920017    -0.06700
C462        C  0.05314725  0.06287942  0.45243858    -0.17800
C463        C  0.07737508  0.07906418  0.43805511     0.10500
C464        C  0.07157180  0.09408922  0.41087737    -0.06600
C465        C  0.04167677  0.09387357  0.39963237    -0.17800
C466        C  0.01838062  0.07598479  0.41188928     0.10500
S467        S  0.11540846  0.07805745  0.45412667    -0.32800
S468        S  0.98561526  0.06938650  0.38720693    -0.32800
H469        H  0.98679382  0.09636716  0.37247557     0.28600
H470        H  0.12772693  0.10236821  0.43863093     0.28500
H471        H  0.05844556  0.05016592  0.47221357     0.19100
H472        H  0.03769507  0.10473722  0.37823970     0.19100
C473        C  0.08624987  0.42839145  0.33726690    -0.06700
C474        C  0.08632582  0.45857280  0.33407743    -0.17800
C475        C  0.06576945  0.47545662  0.35018990     0.10500
C476        C  0.04640223  0.46259382  0.37268727    -0.06600
C477        C  0.04809789  0.43259779  0.37783140    -0.17800
C478        C  0.06697042  0.41518850  0.35960755     0.10500
S479        S  0.06272585  0.51238396  0.33786603    -0.32800
S480        S  0.06376041  0.37663969  0.36487969    -0.32800
H481        H  0.07466717  0.36844591  0.33607694     0.28600
H482        H  0.03029865  0.51267363  0.34074177     0.28500
H483        H  0.10039039  0.46884643  0.31632594     0.19100
H484        H  0.03352926  0.42246087  0.39518097     0.19100
C485        C  0.90926937  0.42097226  0.41297414    -0.06700
C486        C  0.93802735  0.41447182  0.42525682    -0.17800
C487        C  0.95402224  0.43487354  0.44316970     0.10500
C488        C  0.94157833  0.46270217  0.44665430    -0.06600
C489        C  0.90954771  0.46484016  0.44267911    -0.17800
C490        C  0.89347245  0.44472847  0.42472510     0.10500
S491        S  0.99173475  0.42647499  0.45752163    -0.32800
S492        S  0.85362802  0.45117527  0.41614621    -0.32800
H493        H  0.84603328  0.42255372  0.40792991     0.28600
H494        H  0.99147360  0.39744482  0.44827710     0.28500
H495        H  0.94943782  0.39509202  0.41807505     0.19100
H496        H  0.89724246  0.48270879  0.45195991     0.19100
C497        C  0.87589852  0.10691615  0.37258001    -0.06700
C498        C  0.85972940  0.08423280  0.38734993    -0.17800
C499        C  0.87176696  0.07151248  0.41356008     0.10500
C500        C  0.90188249  0.07999220  0.42313775    -0.06600
C501        C  0.91453899  0.10619095  0.41165706    -0.17800
C502        C  0.90164982  0.11970821  0.38677473     0.10500
S503        S  0.84826673  0.04548851  0.43476103    -0.32800
S504        S  0.92141908  0.15122853  0.37177949    -0.32800
H505        H  0.89596358  0.16172391  0.35603543     0.28600
H506        H  0.82422533  0.04285922  0.41362766     0.28500
H507        H  0.83887938  0.07531727  0.37723309     0.19100
H508        H  0.93603104  0.11525513  0.41994168     0.19100
C509        C  0.55834622  0.30317125  0.46152400    -0.06700
C510        C  0.58821990  0.29297222  0.45617752    -0.17800
C511        C  0.60843987  0.30806406  0.43613761     0.10500
C512        C  0.59929431  0.33480790  0.42420696    -0.06600
C513        C  0.57510125  0.34881298  0.43934802    -0.17800
C514        C  0.55558502  0.33332116  0.45955915     0.10500
S515        S  0.64395377  0.29137610  0.42497636    -0.32800
S516        S  0.53001279  0.35283072  0.48427108    -0.32800
H517        H  0.51882508  0.32848783  0.50040146     0.28600
H518        H  0.65944314  0.31728366  0.41646492     0.28500
H519        H  0.59362278  0.27126179  0.46302866     0.19100
H520        H  0.57008712  0.37101271  0.43412089     0.19100
C521        C  0.45650838  0.22423370  0.43163083    -0.06700
C522        C  0.44873241  0.23310525  0.40191868    -0.17800
C523        C  0.43127385  0.21648231  0.38213500     0.10500
C524        C  0.42392881  0.18762210  0.38975293    -0.06600
C525        C  0.43107768  0.17782449  0.41921213    -0.17800
C526        C  0.44755762  0.19559659  0.44001290     0.10500
S527        S  0.41986437  0.23301948  0.34670854    -0.32800
S528        S  0.45960036  0.17904708  0.47462723    -0.32800
H529        H  0.49094921  0.18686893  0.47006827     0.28600
H530        H  0.42866543  0.26168769  0.35364276     0.28500
H531        H  0.45862858  0.25284103  0.39254355     0.19100
H532        H  0.42570388  0.15560037  0.42533634     0.19100
C533        C  0.43983510  0.33650672  0.40763309    -0.06700
C534        C  0.40746427  0.33470581  0.41206711    -0.17800
C535        C  0.38706066  0.34360537  0.38964041     0.10500
C536        C  0.39904234  0.35606801  0.36264427    -0.06600
C537        C  0.43101673  0.36139401  0.35985883    -0.17800
C538        C  0.45151263  0.35127724  0.38154610     0.10500
S539        S  0.34642385  0.33531748  0.39524497    -0.32800
S540        S  0.49192283  0.35441590  0.37203643    -0.32800
H541        H  0.49598009  0.32440972  0.37259787     0.28600
H542        H  0.33576359  0.35655114  0.37546899     0.28500
H543        H  0.39800557  0.32387814  0.43207346     0.19100
H544        H  0.44037914  0.37085746  0.33906244     0.19100
C545        C  0.57043505  0.20402247  0.38480567    -0.06700
C546        C  0.56886968  0.17390367  0.38938121    -0.17800
C547        C  0.58515126  0.15518396  0.37034446     0.10500
C548        C  0.60373879  0.16691471  0.34670498    -0.06600
C549        C  0.60694389  0.19695699  0.34359202    -0.17800
C550        C  0.58985381  0.21558664  0.36160727     0.10500
S551        S  0.58001923  0.11687754  0.37619605    -0.32800
S552        S  0.58957133  0.25340723  0.35151563    -0.32800
H553        H  0.61312563  0.25279867  0.32923812     0.28600
H554        H  0.60651900  0.10876380  0.35990968     0.28500
H555        H  0.55416368  0.16493796  0.40732254     0.19100
H556        H  0.62052484  0.20571260  0.32470863     0.19100
C557        C  0.12452164  0.09049462  0.22411250    -0.06700
C558        C  0.12018797  0.06036876  0.22426233    -0.17800
C559        C  0.10833298  0.04547079  0.19943346     0.10500
C560        C  0.10131146  0.06099136  0.17278184    -0.06600
C561        C  0.10780985  0.09090478  0.17168579    -0.17800
C562        C  0.11975958  0.10577490  0.19693021     0.10500
S563        S  0.09836591  0.00754081  0.20459062    -0.32800
S564        S  0.12553449  0.14422816  0.19405968    -0.32800
H565        H  0.15605118  0.14373306  0.20465855     0.28600
H566        H  0.11521500  0.00314532  0.23125580     0.28500
H567        H  0.12429971  0.04847416  0.24495049     0.19100
H568        H  0.10218319  0.10286690  0.15143118     0.19100
C569        C  0.10006160  0.41938686  0.14647647    -0.06700
C570        C  0.07281576  0.41000482  0.13186103    -0.17800
C571        C  0.05774879  0.42900109  0.11218247     0.10500
C572        C  0.06867479  0.45794496  0.11069261    -0.06600
C573        C  0.10060382  0.46184425  0.11436731    -0.17800
C574        C  0.11606154  0.44387789  0.13439058     0.10500
S575        S  0.02273676  0.41783582  0.09308253    -0.32800
S576        S  0.15490044  0.45412384  0.14513595    -0.32800
H577        H  0.16294061  0.42649728  0.15506339     0.28600
H578        H  0.02378453  0.38860428  0.10148126     0.28500
H579        H  0.06164496  0.38968654  0.13827591     0.19100
H580        H  0.11262143  0.48007516  0.10401212     0.19100
C581        C  0.94214475  0.08101231  0.18669177    -0.06700
C582        C  0.97085547  0.07347718  0.19784999    -0.17800
C583        C  0.99041043  0.05558469  0.18200446     0.10500
C584        C  0.98311651  0.04663335  0.15166914    -0.06600
C585        C  0.95518342  0.05606371  0.13935062    -0.17800
C586        C  0.93462450  0.07300209  0.15653937     0.10500
S587        S  0.02146771  0.04108357  0.20441081    -0.32800
S588        S  0.89838397  0.08170815  0.13974153    -0.32800
H589        H  0.90265619  0.11151671  0.14461375     0.28600
H590        H  0.02576745  0.06508921  0.22359760     0.28500
H591        H  0.97720674  0.07978769  0.22067966     0.19100
H592        H  0.94824375  0.04895099  0.11707553     0.19100
C593        C  0.96129164  0.43717860  0.18439782    -0.06700
C594        C  0.97112947  0.41162796  0.19800122    -0.17800
C595        C  0.95063275  0.39458762  0.21557390     0.10500
C596        C  0.92084901  0.40443166  0.22192961    -0.06600
C597        C  0.90965364  0.42733438  0.20503528    -0.17800
C598        C  0.92919803  0.44298568  0.18519086     0.10500
S599        S  0.96302433  0.36027902  0.22897181    -0.32800
S600        S  0.91140642  0.46919182  0.16121357    -0.32800
H601        H  0.93311252  0.46677648  0.13731495     0.28600
H602        H  0.93346643  0.34941525  0.23734457     0.28500
H603        H  0.99499745  0.40541063  0.19599013     0.19100
H604        H  0.88609728  0.43408366  0.20855355     0.19100
C605        C  0.52952607  0.19165539  0.14187284    -0.06700
C606        C  0.55960743  0.19358172  0.12902111    -0.17800
C607        C  0.58401373  0.17826363  0.14159576     0.10500
C608        C  0.57766812  0.15885064  0.16563650    -0.06600
C609        C  0.54743014  0.15471488  0.17610401    -0.17800
C610        C  0.52424313  0.17271270  0.16711902     0.10500
S611        S  0.62269309  0.18549121  0.12738550    -0.32800
S612        S  0.49088141  0.17452977  0.19261297    -0.32800
H613        H  0.50354106  0.16073228  0.21790146     0.28600
H614        H  0.63561304  0.16031087  0.13895588     0.28500
H615        H  0.56503447  0.20924744  0.11141371     0.19100
H616        H  0.54286758  0.14008232  0.19479400     0.19100
C617        C  0.43659459  0.27666862  0.13970613    -0.06700
C618        C  0.44189182  0.30584242  0.13134587    -0.17800
C619        C  0.43020901  0.32850807  0.14927764     0.10500
C620        C  0.40949142  0.32199908  0.17367588    -0.06600
C621        C  0.39927711  0.29348630  0.17761787    -0.17800
C622        C  0.41504164  0.27097793  0.16423554     0.10500
S623        S  0.44680994  0.36408699  0.14321495    -0.32800
S624        S  0.41371305  0.23811491  0.18676619    -0.32800
H625        H  0.38304258  0.24036766  0.19740191     0.28600
H626        H  0.41992171  0.37880324  0.15087370     0.28500
H627        H  0.45926556  0.31106575  0.11412889     0.19100
H628        H  0.38330194  0.28860656  0.19623781     0.19100
C629        C  0.54927222  0.29627073  0.19499687    -0.06700
C630        C  0.53913028  0.32257878  0.20731101    -0.17800
C631        C  0.55930494  0.34119560  0.22325498     0.10500
C632        C  0.58901502  0.33206837  0.23053356    -0.06600
C633        C  0.60027370  0.30762055  0.21594721    -0.17800
C634        C  0.58154203  0.29101591  0.19646164     0.10500
S635        S  0.54698878  0.37706411  0.23190291    -0.32800
S636        S  0.60136528  0.26613067  0.17212587    -0.32800
H637        H  0.58142448  0.26973823  0.14744875     0.28600
H638        H  0.57623660  0.38863384  0.23951935     0.28500
H639        H  0.51542891  0.32886540  0.20478946     0.19100
H640        H  0.62385285  0.30136740  0.21982650     0.19100
C641        C  0.37825568  0.14290567  0.20225800    -0.06700
C642        C  0.40179483  0.12681921  0.18906685    -0.17800
C643        C  0.41384981  0.13419035  0.16026924     0.10500
C644        C  0.40471781  0.16019524  0.14619440    -0.06600
C645        C  0.37649366  0.17156239  0.15634740    -0.17800
C646        C  0.36349889  0.16347174  0.18440970     0.10500
S647        S  0.43871857  0.10868538  0.14212581    -0.32800
S648        S  0.33000999  0.18226828  0.19749843    -0.32800
H649        H  0.31916626  0.16063643  0.21765895     0.28600
H650        H  0.43484996  0.11993179  0.11272247     0.28500
H651        H  0.41151320  0.10916557  0.20160215     0.19100
H652        H  0.36607047  0.18901158  0.14427633     0.19100
C653        C  0.45966970  0.25534646  0.63674755     0.29400
C654        C  0.50394407  0.21517521  0.63367188     0.29400
C655        C  0.44829277  0.22408137  0.63190147    -0.06800
C656        C  0.48208585  0.25922028  0.60915678    -0.07500
C657        C  0.48261730  0.25524305  0.66307192    -0.07400
C658        C  0.47055092  0.20374990  0.63058176    -0.06800
C659        C  0.50562381  0.23807916  0.60784490    -0.07500
C660        C  0.50439260  0.23386377  0.66238136    -0.07400
C661        C  0.45549262  0.17729603  0.62820672    -0.32800
N662        N  0.42428298  0.18064583  0.63016000     0.13700
C663        C  0.42018191  0.20975911  0.62963730    -0.32800
H664        H  0.39832892  0.22033400  0.63157328     0.15600
C665        C  0.51271208  0.23418952  0.57757107    -0.31800
N666        N  0.49553028  0.25184695  0.56083977     0.12400
C667        C  0.47614592  0.26642209  0.57922118    -0.31800
C668        C  0.53063645  0.24541703  0.67603315    -0.32100
N669        N  0.52707652  0.27370743  0.68254038     0.12900
H670        H  0.55155313  0.23371947  0.67869183     0.15500
C671        C  0.49760289  0.27951489  0.67497055    -0.32100
H672        H  0.48853740  0.30095684  0.67382444     0.15500
H673        H  0.45750320  0.27944370  0.57129188     0.15500
H674        H  0.46725685  0.15722822  0.62824486     0.15600
H675        H  0.52713470  0.21769392  0.56805196     0.15500
C676        C  0.00322570  0.02065044  0.63643658     0.29400
C677        C  0.04215713  0.47556224  0.61936316     0.29400
C678        C  0.00194227  0.49226857  0.65548827    -0.06800
C679        C  0.99557189  0.00582339  0.60571556    -0.07500
C680        C  0.03719495  0.02899514  0.63127615    -0.07400
C681        C  0.02133619  0.46983843  0.64782542    -0.06800
C682        C  0.01810654  0.48320489  0.59552958    -0.07500
C683        C  0.05686670  0.00653526  0.62467176    -0.07400
C684        C  0.00566599  0.44493928  0.65834805    -0.32800
N685        N  0.97825111  0.45173492  0.67129091     0.13700
C686        C  0.97649557  0.48064983  0.67048950    -0.32800
H687        H  0.95691769  0.49270587  0.67827423     0.15600
C688        C  0.01937335  0.48096818  0.56455034    -0.31800
N689        N  0.99742359  0.99983480  0.55546898     0.12400
C690        C  0.98639527  0.01678895  0.57794018    -0.31800
C691        C  0.08604833  0.01713930  0.63273495    -0.32100
N692        N  0.08414392  0.04462357  0.64302236     0.14500
H693        H  0.10647755  0.00483497  0.63599008     0.15500
C694        C  0.05464601  0.05265336  0.63988931    -0.32100
H695        H  0.04559578  0.07236645  0.64916377     0.15500
H696        H  0.97483536  0.03681944  0.57410086     0.15500
H697        H  0.01249258  0.42301128  0.65513947     0.15600
H698        H  0.03446259  0.46741269  0.55136737     0.15500
C699        C  0.47936443  0.23742184  0.94524105     0.29400
C700        C  0.52816128  0.27592465  0.95393040     0.29400
C701        C  0.47155242  0.26970396  0.94536684    -0.06800
C702        C  0.49360438  0.24478725  0.47977472    -0.07500
C703        C  0.50695257  0.23566748  0.92317720    -0.07400
C704        C  0.49628738  0.28934811  0.94790868    -0.06800
C705        C  0.51900273  0.26443622  0.48432162    -0.07500
C706        C  0.53124221  0.25505005  0.92701621    -0.07400
C707        C  0.48557814  0.31519327  0.93658940    -0.32800
N708        N  0.45506556  0.31204885  0.92989038     0.13700
C709        C  0.44605325  0.28474880  0.93694163    -0.32800
H710        H  0.42341627  0.27552743  0.93197783     0.15600
C711        C  0.52135838  0.26928576  0.51492433    -0.31800
N712        N  0.49818617  0.25439380  0.52915132     0.12400
C713        C  0.48054969  0.24014161  0.50840292    -0.31800
C714        C  0.55443625  0.24669243  0.90720130    -0.32100
N715        N  0.54496205  0.22268129  0.89215662     0.12900
H716        H  0.57737033  0.25598353  0.90475748     0.15500
C717        C  0.51600025  0.21557581  0.90190278    -0.32100
H718        H  0.50297974  0.19648285  0.89496169     0.15500
H719        H  0.45925440  0.22837625  0.51376018     0.15500
H720        H  0.49952955  0.33402328  0.93056473     0.15600
H721        H  0.53760620  0.28383236  0.52602891     0.15500
C722        C  0.95037994  0.47865369  0.95327706     0.29400
C723        C  0.99730226  0.02492709  0.94593900     0.29400
C724        C  0.94165863  0.01035658  0.94596232    -0.06800
C725        C  0.98524358  0.49270063  0.47408659    -0.07500
C726        C  0.97409220  0.47477753  0.92696010    -0.07400
C727        C  0.96315949  0.03293094  0.94684819    -0.06800
C728        C  0.00407672  0.01527699  0.47617197    -0.07500
C729        C  0.99479605  0.49752339  0.92238729    -0.07400
C730        C  0.94793867  0.05823633  0.94370216    -0.32800
N731        N  0.91815929  0.05227509  0.93581364     0.13700
C732        C  0.91483872  0.02290178  0.93591833    -0.32800
H733        H  0.89644810  0.01131829  0.92468626     0.15600
C734        C  0.00963763  0.02228252  0.50622125    -0.31800
N735        N  0.99345377  0.00348988  0.52420099     0.12400
C736        C  0.97991155  0.48617279  0.50424288    -0.31800
C737        C  0.01728386  0.48885560  0.90245138    -0.32100
N738        N  0.00992754  0.46196151  0.89271446     0.12900
H739        H  0.03793954  0.50115066  0.89590714     0.15500
C740        C  0.98358792  0.45305834  0.90732024    -0.32100
H741        H  0.97280560  0.43216541  0.90377103     0.15500
H742        H  0.96340152  0.47026850  0.51315994     0.15500
H743        H  0.95946408  0.07915884  0.94333575     0.15600
H744        H  0.02309622  0.04057984  0.51448387     0.15500
Fe745      Fe  0.60799082  0.32667577  0.82449458     1.65800
Fe746      Fe  0.62145505  0.39273234  0.85041400     1.73200
Fe747      Fe  0.66069871  0.37024031  0.78750096     1.54400
O748        O  0.67593026  0.32765606  0.78594197    -0.82200
O749        O  0.63546276  0.42836181  0.82595684    -0.80500
O750        O  0.64505623  0.30119183  0.81620226    -0.84700
O751        O  0.59794121  0.32718700  0.77873441    -0.79600
O752        O  0.69250368  0.37963866  0.82152542    -0.81400
O753        O  0.57743812  0.39534114  0.83104145    -0.84100
C754        C  0.60706554  0.34016090  0.75458082     0.96600
C755        C  0.66770459  0.30361117  0.79791709     1.04100
O756        O  0.63046356  0.36319201  0.82027021    -1.13100
O757        O  0.60413378  0.36550981  0.88438626    -0.75500
O758        O  0.61719116  0.32218373  0.87021498    -0.79000
O759        O  0.62916902  0.35902811  0.75374622    -0.79700
C760        C  0.60799380  0.33925955  0.89053192     0.95600
O761        O  0.56752024  0.34829956  0.83371493    -0.77700
O762        O  0.66652661  0.38761167  0.86591352    -0.82900
C763        C  0.64344958  0.43414197  0.79903533     0.98200
C764        C  0.69132484  0.38253916  0.85056632     1.04100
O765        O  0.65109123  0.41425908  0.78077771    -0.78500
C766        C  0.55981472  0.37336636  0.82552019     1.02400
Fe767      Fe  0.60723208  0.16208778  0.73552446     1.65800
Fe768      Fe  0.62415813  0.09661719  0.71131375     1.73200
Fe769      Fe  0.66126887  0.12440258  0.77223479     1.54400
O770        O  0.67733808  0.16756813  0.76856896    -0.82200
O771        O  0.64303858  0.06411162  0.73580258    -0.80500
O772        O  0.64397777  0.19052557  0.73961702    -0.84700
O773        O  0.59876257  0.16523691  0.78079347    -0.79600
O774        O  0.69298617  0.11271281  0.73845294    -0.81400
O775        O  0.58091860  0.08968573  0.73295811    -0.84100
C776        C  0.60990971  0.15628180  0.80543937     0.96600
C777        C  0.66778215  0.19048648  0.75604712     1.04100
O778        O  0.63108737  0.12792288  0.74035283    -1.13100
O779        O  0.60189245  0.12005351  0.67848875    -0.75500
O780        O  0.61600111  0.16401569  0.68963283    -0.79000
O781        O  0.63141981  0.13803674  0.80668738    -0.79700
C782        C  0.60213128  0.14660837  0.67253530     0.95600
O783        O  0.56681515  0.13602947  0.73309707    -0.77700
O784        O  0.66842184  0.10614175  0.69355788    -0.82900
C785        C  0.64601786  0.05976873  0.76379452     0.98200
C786        C  0.69301174  0.11038561  0.70934617     1.04100
O787        O  0.64855467  0.08092049  0.78212312    -0.78500
C788        C  0.56132847  0.10929900  0.73911060     1.02400
Fe789      Fe  0.38934410  0.33272067  0.77461929     1.65800
Fe790      Fe  0.37870427  0.39376551  0.73555392     1.73200
Fe791      Fe  0.33138074  0.37270145  0.79532513     1.54400
O792        O  0.32110081  0.32754980  0.79976273    -0.82200
O793        O  0.37392187  0.42940227  0.76271161    -0.80500
O794        O  0.35143957  0.30782179  0.76501733    -0.84700
O795        O  0.37972182  0.33107148  0.82083322    -0.79600
O796        O  0.30328333  0.37352956  0.75846251    -0.81400
O797        O  0.42637858  0.39269732  0.74882680    -0.84100
C798        C  0.37742539  0.35214962  0.83889871     0.96600
C799        C  0.32871193  0.30606716  0.78325264     1.04100
O800        O  0.36640317  0.36697611  0.76799927    -1.13100
O801        O  0.38405742  0.36219329  0.70258234    -0.75500
O802        O  0.40382302  0.32795430  0.73050204    -0.79000
O803        O  0.36038268  0.37309727  0.83266679    -0.79700
C804        C  0.39671658  0.33812505  0.70494021     0.95600
O805        O  0.42673978  0.35738579  0.78376408    -0.77700
O806        O  0.33218288  0.39526388  0.72141827    -0.82900
C807        C  0.35352099  0.43622881  0.78210584     0.98200
C808        C  0.30659092  0.38435340  0.73195253     1.04100
O809        O  0.33523293  0.41766197  0.79452757    -0.78500
C810        C  0.43993304  0.37809798  0.76951904     1.02400
Fe811      Fe  0.39726155  0.16073582  0.79441671     1.65800
Fe812      Fe  0.38342655  0.10431300  0.84213409     1.73200
Fe813      Fe  0.33113735  0.12132248  0.78684141     1.54400
O814        O  0.32183317  0.16577430  0.78355341    -0.82200
O815        O  0.37230931  0.06691264  0.81975907    -0.80500
O816        O  0.36290602  0.18921839  0.80271878    -0.84700
O817        O  0.38546426  0.15731703  0.74907169    -0.79600
O818        O  0.30717908  0.12093790  0.82705363    -0.81400
O819        O  0.42908302  0.10097747  0.82279789    -0.84100
C820        C  0.37052322  0.13925859  0.73294602     0.96600
C821        C  0.33516439  0.18865475  0.79378253     1.04100
O822        O  0.37054248  0.12850244  0.80793611    -1.13100
O823        O  0.39623301  0.13819495  0.87031700    -0.75500
O824        O  0.41418580  0.17023261  0.83698779    -0.79000
O825        O  0.35171782  0.12072574  0.74426038    -0.79700
C826        C  0.40978104  0.16198551  0.86417647     0.95600
O827        O  0.43282593  0.13392319  0.78549125    -0.77700
O828        O  0.33892795  0.10590865  0.86334337    -0.82900
C829        C  0.35272372  0.05902283  0.80015605     0.98200
C830        C  0.31242665  0.11403858  0.85433716     1.04100
O831        O  0.33466876  0.07643235  0.78747088    -0.78500
C832        C  0.44334704  0.11267265  0.79979250     1.02400
Fe833      Fe  0.09659765  0.41207386  0.73693890     1.65800
Fe834      Fe  0.11536516  0.34690487  0.71645999     1.73200
Fe835      Fe  0.14448744  0.37500336  0.78163753     1.54400
O836        O  0.15867670  0.41837881  0.78207572    -0.82200
O837        O  0.13173005  0.31456931  0.74289793    -0.80500
O838        O  0.13063158  0.44208163  0.74885638    -0.84700
O839        O  0.07966483  0.41264259  0.77985727    -0.79600
O840        O  0.18063114  0.36651421  0.75109265    -0.81400
O841        O  0.07080600  0.33979207  0.73499639    -0.84100
C842        C  0.08553360  0.40298768  0.80605983     0.96600
C843        C  0.15110464  0.44161469  0.76920206     1.04100
O844        O  0.11946208  0.37822624  0.74571267    -1.13100
O845        O  0.09809565  0.37119498  0.68030146    -0.75500
O846        O  0.11377888  0.41455164  0.69335013    -0.79000
O847        O  0.10770985  0.38584831  0.81124465    -0.79700
C848        C  0.10424138  0.39723937  0.67332785     0.95600
O849        O  0.05932490  0.38483085  0.72521656    -0.77700
O850        O  0.16103463  0.35720355  0.70401310    -0.82900
C851        C  0.13662740  0.30997883  0.77050602     0.98200
C852        C  0.18347815  0.36368656  0.72202700     1.04100
O853        O  0.13575655  0.33063600  0.78944487    -0.78500
C854        C  0.05255426  0.36083072  0.73835089     1.02400
Fe855      Fe  0.10611692  0.08608378  0.81544598     1.65800
Fe856      Fe  0.12268712  0.14670260  0.85513486     1.73200
Fe857      Fe  0.16877711  0.12580545  0.79494012     1.54400
O858        O  0.17744651  0.08084369  0.79329082    -0.82200
O859        O  0.13748113  0.18302094  0.83247545    -0.80500
O860        O  0.14185227  0.05912533  0.82305603    -0.84700
O861        O  0.11545490  0.08460884  0.77003839    -0.79600
O862        O  0.19600394  0.12934579  0.83257368    -0.81400
O863        O  0.07860952  0.15282735  0.83505228    -0.84100
C864        C  0.12857410  0.09908990  0.74898231     0.96600
C865        C  0.16560291  0.05807220  0.80584254     1.04100
O866        O  0.13252300  0.11984760  0.82204178    -1.13100
O867        O  0.10404261  0.11762835  0.88671898    -0.75500
O868        O  0.09082997  0.07984433  0.85902693    -0.79000
O869        O  0.14467977  0.12161167  0.75461837    -0.79700
C870        C  0.09036963  0.09348480  0.88372857     0.95600
O871        O  0.07041365  0.11278320  0.80695265    -0.77700
O872        O  0.16712438  0.14042639  0.87376770    -0.82900
C873        C  0.15217909  0.18998010  0.80861746     0.98200
C874        C  0.19282856  0.13350595  0.86100468     1.04100
O875        O  0.16448733  0.17098835  0.79174642    -0.78500
C876        C  0.06320639  0.13808725  0.81516656     1.02400
Fe877      Fe  0.89954552  0.41227692  0.81911270     1.65800
Fe878      Fe  0.88252648  0.34808023  0.84761561     1.73200
Fe879      Fe  0.84122107  0.37210387  0.78750897     1.54400
O880        O  0.82618866  0.41430558  0.78929302    -0.82200
O881        O  0.86633614  0.31365380  0.82331209    -0.80500
O882        O  0.86603334  0.44011933  0.80705100    -0.84700
O883        O  0.91123212  0.40672314  0.77383990    -0.79600
O884        O  0.81079646  0.36176958  0.82281682    -0.81400
O885        O  0.92635679  0.34327186  0.82612801    -0.84100
C886        C  0.89732631  0.39650887  0.75061972     0.96600
C887        C  0.83947604  0.43821317  0.79557913     1.04100
O888        O  0.87368139  0.37764299  0.81764332    -1.13100
O889        O  0.90046852  0.37617260  0.88025519    -0.75500
O890        O  0.88793087  0.41937335  0.86428659    -0.79000
O891        O  0.87095136  0.38347214  0.75167886    -0.79700
C892        C  0.89526710  0.40245791  0.88553701     0.95600
O893        O  0.93747058  0.38912605  0.83180227    -0.77700
O894        O  0.83797101  0.35410684  0.86571164    -0.82900
C895        C  0.85648362  0.30852161  0.79702442     0.98200
C896        C  0.81266951  0.35872855  0.85165741     1.04100
O897        O  0.84981513  0.32876930  0.77911957    -0.78500
C898        C  0.94482786  0.36486006  0.82138628     1.02400
Fe899      Fe  0.90380821  0.09241968  0.77814779     1.65800
Fe900      Fe  0.88526688  0.14318163  0.72725127     1.73200
Fe901      Fe  0.83391018  0.12171249  0.78388693     1.54400
O902        O  0.82885057  0.07643325  0.78504178    -0.82200
O903        O  0.87118031  0.18000482  0.74852616    -0.80500
O904        O  0.87405115  0.05877812  0.76911110    -0.84700
O905        O  0.88897957  0.09249101  0.82262062    -0.79600
O906        O  0.81082921  0.12015877  0.74395328    -0.81400
O907        O  0.93044112  0.15156359  0.74459777    -0.84100
C908        C  0.87059700  0.10667980  0.83883150     0.96600
C909        C  0.84544247  0.05569730  0.77562262     1.04100
O910        O  0.87403388  0.11934079  0.76301158    -1.13100
O911        O  0.90073606  0.10919853  0.70102436    -0.75500
O912        O  0.92540024  0.08622888  0.73678707    -0.79000
O913        O  0.85110135  0.12320237  0.82750460    -0.79700
C914        C  0.92088931  0.09160962  0.70898952     0.95600
O915        O  0.93367702  0.12598869  0.78769020    -0.77700
O916        O  0.84175149  0.13697873  0.70662740    -0.82900
C917        C  0.85188674  0.18609960  0.76933526     0.98200
C918        C  0.81574705  0.12688448  0.71646617     1.04100
O919        O  0.83585490  0.16688474  0.78373578    -0.78500
C920        C  0.94421474  0.14504750  0.76930234     1.02400
C921        C  0.85257572  0.27749825  0.78840785    -0.06700
C922        C  0.84934868  0.25715846  0.81220115    -0.17800
C923        C  0.84758823  0.22747703  0.80672463     0.10500
C924        C  0.84872747  0.21718088  0.77661632    -0.06600
C925        C  0.85084833  0.23738674  0.75267778    -0.17800
C926        C  0.85307600  0.26719819  0.75815585     0.10500
S927        S  0.84718197  0.20390577  0.83924612    -0.32800
S928        S  0.85878043  0.29047303  0.72567543    -0.32800
H929        H  0.88378064  0.30594128  0.73852065     0.28600
H930        H  0.81840063  0.19105676  0.83195556     0.28500
H931        H  0.84874925  0.26434780  0.83562171     0.19100
H932        H  0.85205016  0.22981002  0.72940889     0.19100
C933        C  0.83199020  0.02615812  0.77411293    -0.06700
C934        C  0.81552173  0.01567885  0.79966856    -0.17800
C935        C  0.81457138  0.48561336  0.80668893     0.10500
C936        C  0.82614753  0.46546706  0.78577040    -0.06600
C937        C  0.83497420  0.47482791  0.75659736    -0.17800
C938        C  0.84044500  0.00654617  0.75090680     0.10500
S939        S  0.80303133  0.47566820  0.84474942    -0.32800
S940        S  0.86135620  0.01693605  0.71657689    -0.32800
H941        H  0.85596972  0.04655890  0.71768550     0.28600
H942        H  0.79701429  0.44659206  0.83768075     0.28500
H943        H  0.80874041  0.03043195  0.81748582     0.19100
H944        H  0.84403380  0.45943973  0.74048876     0.19100
C945        C  0.03548626  0.14974209  0.79990774    -0.06700
C946        C  0.01293506  0.16447762  0.81649530    -0.17800
C947        C  0.98336950  0.16841575  0.80429848     0.10500
C948        C  0.97577108  0.15640986  0.77573165    -0.06600
C949        C  0.99950742  0.14575824  0.75756153    -0.17800
C950        C  0.02930904  0.14272184  0.76905620     0.10500
S951        S  0.95606055  0.18888360  0.82586053    -0.32800
S952        S  0.05876513  0.12855903  0.74421627    -0.32800
H953        H  0.04105451  0.12673851  0.71765584     0.28600
H954        H  0.93493256  0.19235020  0.80216813     0.28500
H955        H  0.01766333  0.17147397  0.83949346     0.19100
H956        H  0.99392901  0.13711122  0.73537346     0.19100
C957        C  0.02473343  0.35949402  0.75949888    -0.06700
C958        C  0.01325383  0.38606587  0.76908125    -0.17800
C959        C  0.98958086  0.38827921  0.79071025     0.10500
C960        C  0.97438974  0.36302836  0.80279818    -0.06600
C961        C  0.98596615  0.33613497  0.79367350    -0.17800
C962        C  0.01091354  0.33410407  0.77253540     0.10500
S963        S  0.97998788  0.42476562  0.80051955    -0.32800
S964        S  0.02250337  0.29853565  0.76184445    -0.32800
H965        H  0.02461642  0.30501640  0.73062771     0.28600
H966        H  0.98393300  0.42025217  0.83180020     0.28500
H967        H  0.02326576  0.40598428  0.76002839     0.19100
H968        H  0.97491608  0.31648392  0.80227517     0.19100
C969        C  0.14330054  0.27947853  0.78012473    -0.06700
C970        C  0.14294305  0.27225689  0.81114886    -0.17800
C971        C  0.14812018  0.24397140  0.82119227     0.10500
C972        C  0.15289467  0.22137890  0.79985456    -0.06600
C973        C  0.15469763  0.22877161  0.76901895    -0.17800
C974        C  0.15043427  0.25721008  0.75888117     0.10500
S975        S  0.14904436  0.23858754  0.86176428    -0.32800
S976        S  0.15422031  0.26377395  0.71842181    -0.32800
H977        H  0.16881743  0.23799519  0.71074224     0.28600
H978        H  0.17300902  0.21872137  0.86048048     0.28500
H979        H  0.13859209  0.28880843  0.82790430     0.19100
H980        H  0.15832516  0.21185915  0.75252401     0.19100
C981        C  0.16357369  0.46972977  0.78076365    -0.06700
C982        C  0.17774156  0.48994458  0.76080921    -0.17800
C983        C  0.18393229  0.02091181  0.76743261     0.10500
C984        C  0.17648682  0.02865481  0.79777561    -0.06600
C985        C  0.17106287  0.00641050  0.81905571    -0.17800
C986        C  0.15578850  0.47882314  0.81046621     0.10500
S987        S  0.19609068  0.04781820  0.73973677    -0.32800
S988        S  0.13957375  0.45464287  0.83883220    -0.32800
H989        H  0.16323757  0.43464854  0.83572218     0.28600
H990        H  0.19864057  0.02908533  0.71476821     0.28500
H991        H  0.18481925  0.48287879  0.73840005     0.19100
H992        H  0.16628122  0.01208898  0.84247520     0.19100
C993        C  0.22126207  0.12823781  0.87850084    -0.06700
C994        C  0.23136285  0.09961725  0.87831325    -0.17800
C995        C  0.26298251  0.09345664  0.87638013     0.10500
C996        C  0.28524630  0.11627168  0.87514095    -0.06600
C997        C  0.27525638  0.14431857  0.88128576    -0.17800
C998        C  0.24362590  0.15060014  0.88243693     0.10500
S999        S  0.27326182  0.05652696  0.87006481    -0.32800
S1000       S  0.23335081  0.18796077  0.88348095    -0.32800
H1001       H  0.20303300  0.18267977  0.89437501     0.28600
H1002       H  0.30413911  0.06025030  0.87920883     0.28500
H1003       H  0.21455287  0.08212409  0.87520961     0.19100
H1004       H  0.29201433  0.16201841  0.88107760     0.19100
C1005       C  0.27850759  0.38315326  0.71340413    -0.06700
C1006       C  0.26774552  0.35545743  0.70502526    -0.17800
C1007       C  0.23601209  0.34871436  0.70361035     0.10500
C1008       C  0.21464845  0.37043575  0.70963392    -0.06600
C1009       C  0.22559639  0.39905484  0.71309237    -0.17800
C1010       C  0.25728305  0.40561785  0.71520473     0.10500
S1011       S  0.22440288  0.31137548  0.69916216    -0.32800
S1012       S  0.26879569  0.44197358  0.72537031    -0.32800
H1013       H  0.29931887  0.44033627  0.71433603     0.28600
H1014       H  0.19558308  0.31682630  0.68633063     0.28500
H1015       H  0.28399678  0.33817804  0.70337868     0.19100
H1016       H  0.20928309  0.41590038  0.71769122     0.19100
C1017       C  0.31927854  0.21655994  0.79395302    -0.06700
C1018       C  0.31170389  0.22863203  0.76592468    -0.17800
C1019       C  0.30950413  0.25854704  0.76255074     0.10500
C1020       C  0.31471503  0.27687323  0.78775599    -0.06600
C1021       C  0.31703799  0.26442158  0.81665815    -0.17800
C1022       C  0.31945126  0.23447290  0.81999930     0.10500
S1023       S  0.30351048  0.27250033  0.72492939    -0.32800
S1024       S  0.32521117  0.22072730  0.85779233    -0.32800
H1025       H  0.32114052  0.19149125  0.85041833     0.28600
H1026       H  0.29148155  0.29860187  0.73530009     0.28500
H1027       H  0.31061246  0.21513672  0.74598258     0.19100
H1028       H  0.32067858  0.27815636  0.83627981     0.19100
C1029       C  0.35031728  0.46736432  0.78896833    -0.06700
C1030       C  0.35291631  0.48699616  0.76460082    -0.17800
C1031       C  0.37945651  0.01420150  0.78364817     0.10500
C1032       C  0.35196644  0.02817758  0.79169858    -0.06600
C1033       C  0.32428406  0.01180046  0.79448516    -0.17800
C1034       C  0.34450108  0.47811169  0.81849282     0.10500
S1035       S  0.41614472  0.03317449  0.77830353    -0.32800
S1036       S  0.34188741  0.45523140  0.85162300    -0.32800
H1037       H  0.36527246  0.43666788  0.84208160     0.28600
H1038       H  0.40373950  0.05868131  0.76690804     0.28500
H1039       H  0.35712761  0.47911140  0.74178183     0.19100
H1040       H  0.30331884  0.02258446  0.80094694     0.19100
C1041       C  0.53180095  0.10216986  0.75596941    -0.06700
C1042       C  0.53000186  0.11058866  0.78670268    -0.17800
C1043       C  0.50168042  0.11086364  0.80287631     0.10500
C1044       C  0.47391701  0.10263697  0.78831069    -0.06600
C1045       C  0.47586857  0.09299803  0.75794672    -0.17800
C1046       C  0.50424210  0.09255895  0.74174161     0.10500
S1047       S  0.50173090  0.12597108  0.84058416    -0.32800
S1048       S  0.50286503  0.08246104  0.70219178    -0.32800
H1049       H  0.53438500  0.07693668  0.69830960     0.28600
H1050       H  0.47828347  0.10734082  0.85215512     0.28500
H1051       H  0.55071650  0.11868880  0.79775478     0.19100
H1052       H  0.45471622  0.08768874  0.74599170     0.19100
C1053       C  0.72373447  0.11434772  0.69454951    -0.06700
C1054       C  0.74316724  0.09074946  0.69299994    -0.17800
C1055       C  0.77541474  0.09485883  0.69330873     0.10500
C1056       C  0.78859154  0.12290728  0.69665007    -0.06600
C1057       C  0.76934571  0.14652041  0.69353533    -0.17800
C1058       C  0.73702510  0.14241609  0.69229011     0.10500
S1059       S  0.79867656  0.06337336  0.69373479    -0.32800
S1060       S  0.71245283  0.17311318  0.69195948    -0.32800
H1061       H  0.73622272  0.19442981  0.69153662     0.28600
H1062       H  0.82613243  0.07804630  0.68448411     0.28500
H1063       H  0.73328840  0.06905931  0.69456819     0.19100
H1064       H  0.77920633  0.16808995  0.69606853     0.19100
C1065       C  0.52982670  0.37605645  0.80899476    -0.06700
C1066       C  0.51587503  0.40311302  0.80583577    -0.17800
C1067       C  0.48729711  0.40587210  0.79088404     0.10500
C1068       C  0.47321210  0.38143968  0.77705593    -0.06600
C1069       C  0.48857907  0.35525952  0.77799921    -0.17800
C1070       C  0.51553027  0.35178534  0.79443451     0.10500
S1071       S  0.46974083  0.44064234  0.79119615    -0.32800
S1072       S  0.52995363  0.31545495  0.79624526    -0.32800
H1073       H  0.51385473  0.30388536  0.77127818     0.28600
H1074       H  0.43889957  0.43036840  0.79176585     0.28500
H1075       H  0.52653939  0.42200475  0.81621366     0.19100
H1076       H  0.47774279  0.33644318  0.76757278     0.19100
C1077       C  0.72047376  0.37710306  0.86637845    -0.06700
C1078       C  0.72916321  0.34818879  0.86816561    -0.17800
C1079       C  0.76037490  0.34089280  0.86894270     0.10500
C1080       C  0.78340393  0.36295668  0.86841979    -0.06600
C1081       C  0.77440161  0.39170891  0.87179124    -0.17800
C1082       C  0.74317611  0.39905201  0.87030563     0.10500
S1083       S  0.76963321  0.30334032  0.86592124    -0.32800
S1084       S  0.73400203  0.43669944  0.86914754    -0.32800
H1085       H  0.70286361  0.43292115  0.87811886     0.28600
H1086       H  0.80002669  0.30669993  0.87659819     0.28500
H1087       H  0.71174569  0.33121683  0.86545498     0.19100
H1088       H  0.79197099  0.40876809  0.87172450     0.19100
C1089       C  0.68169609  0.27637693  0.78733044    -0.06700
C1090       C  0.68210836  0.27130987  0.75587187    -0.17800
C1091       C  0.68119318  0.24305647  0.74418682     0.10500
C1092       C  0.68147691  0.21920981  0.76434954    -0.06600
C1093       C  0.68605127  0.22459197  0.79541303    -0.17800
C1094       C  0.68557729  0.25271292  0.80712008     0.10500
S1095       S  0.67666651  0.23782537  0.70378925    -0.32800
S1096       S  0.68694710  0.25672063  0.84780252    -0.32800
H1097       H  0.69747779  0.28559711  0.84706292     0.28600
H1098       H  0.67573388  0.26711183  0.69560916     0.28500
H1099       H  0.67931586  0.28934021  0.74059382     0.19100
H1100       H  0.68631811  0.20666674  0.81122863     0.19100
C1101       C  0.64379773  0.46543210  0.78981546    -0.06700
C1102       C  0.66739971  0.47683453  0.77068885    -0.17800
C1103       C  0.63323687  0.01851268  0.80137123     0.10500
C1104       C  0.64642693  0.02875417  0.77378457    -0.06600
C1105       C  0.65819732  0.00818129  0.75329727    -0.17800
C1106       C  0.62231042  0.48497715  0.80240781     0.10500
S1107       S  0.61496898  0.04193815  0.82843120    -0.32800
S1108       S  0.58834162  0.47311459  0.82360449    -0.32800
H1109       H  0.58267229  0.44872460  0.80530034     0.28600
H1110       H  0.59927753  0.05777406  0.80641650     0.28500
H1111       H  0.68417609  0.46248866  0.76091443     0.19100
H1112       H  0.66834870  0.01541434  0.73187652     0.19100
C1113       C  0.01971255  0.04954157  0.93596435    -0.06700
C1114       C  0.04933427  0.05275877  0.94892441    -0.17800
C1115       C  0.07343580  0.06863050  0.93393051     0.10500
C1116       C  0.06723019  0.08314136  0.90651596    -0.06600
C1117       C  0.03715741  0.08257870  0.89560677    -0.17800
C1118       C  0.01432939  0.06442265  0.90804439     0.10500
S1119       S  0.11182425  0.06695521  0.94907568    -0.32800
S1120       S  0.98221301  0.05594613  0.88299546    -0.32800
H1121       H  0.98322899  0.08192269  0.86640066     0.28600
H1122       H  0.12419768  0.09133095  0.93383468     0.28500
H1123       H  0.05478922  0.04045756  0.96894902     0.19100
H1124       H  0.03278835  0.09322672  0.87417725     0.19100
C1125       C  0.06673841  0.41607577  0.83050713    -0.06700
C1126       C  0.06039603  0.44538336  0.82615583    -0.17800
C1127       C  0.04017311  0.45985788  0.84491117     0.10500
C1128       C  0.02772444  0.44600531  0.87095617    -0.06600
C1129       C  0.03403633  0.41666457  0.87590434    -0.17800
C1130       C  0.05274268  0.40132003  0.85536900     0.10500
S1131       S  0.02892378  0.49507024  0.83247919    -0.32800
S1132       S  0.05645300  0.36314208  0.86101147    -0.32800
H1133       H  0.05701236  0.35617569  0.82989895     0.28600
H1134       H  0.99795272  0.49110809  0.84209744     0.28500
H1135       H  0.07034153  0.45708734  0.80686980     0.19100
H1136       H  0.02400578  0.40563964  0.89552674     0.19100
C1137       C  0.90120083  0.41414642  0.91631082    -0.06700
C1138       C  0.92752428  0.40547650  0.93196887    -0.17800
C1139       C  0.94099527  0.42379572  0.95384490     0.10500
C1140       C  0.92892842  0.45163771  0.95777331    -0.06600
C1141       C  0.89727825  0.45366253  0.95185550    -0.17800
C1142       C  0.88379216  0.43642589  0.92915361     0.10500
S1143       S  0.97682569  0.41353298  0.97051162    -0.32800
S1144       S  0.84503051  0.44371558  0.91741907    -0.32800
H1145       H  0.83880634  0.41603039  0.90556786     0.28600
H1146       H  0.97052552  0.42687061  0.99839916     0.28500
H1147       H  0.93970304  0.38651276  0.92474948     0.19100
H1148       H  0.88386131  0.46961677  0.96338664     0.19100
C1149       C  0.87260164  0.10251703  0.87180934    -0.06700
C1150       C  0.85653443  0.07878374  0.88469571    -0.17800
C1151       C  0.86829767  0.06447616  0.91008749     0.10500
C1152       C  0.89826709  0.07246941  0.92055052    -0.06600
C1153       C  0.91046448  0.09970560  0.91144301    -0.17800
C1154       C  0.89765469  0.11481904  0.88753979     0.10500
S1155       S  0.84418337  0.03761721  0.92939504    -0.32800
S1156       S  0.91616244  0.14830258  0.87619710    -0.32800
H1157       H  0.89165557  0.15791167  0.85853225     0.28600
H1158       H  0.81838800  0.03955391  0.91042249     0.28500
H1159       H  0.83605352  0.07025064  0.87357282     0.19100
H1160       H  0.93130236  0.10878584  0.92115433     0.19100
C1161       C  0.55666296  0.29630066  0.95786813    -0.06700
C1162       C  0.58613358  0.28547069  0.95176188    -0.17800
C1163       C  0.60645724  0.30072549  0.93195241     0.10500
C1164       C  0.59762783  0.32785075  0.92071233    -0.06600
C1165       C  0.57399154  0.34202660  0.93655287    -0.17800
C1166       C  0.55453157  0.32653321  0.95677178     0.10500
S1167       S  0.64125480  0.28347180  0.91962851    -0.32800
S1168       S  0.53049722  0.34607775  0.98292743    -0.32800
H1169       H  0.52055334  0.32166812  0.99973676     0.28600
H1170       H  0.65742274  0.30929323  0.91205236     0.28500
H1171       H  0.59074108  0.26319461  0.95710022     0.19100
H1172       H  0.56944338  0.36445862  0.93199362     0.19100
C1173       C  0.45384668  0.21747897  0.93142881    -0.06700
C1174       C  0.44138404  0.22792143  0.90403585    -0.17800
C1175       C  0.42398893  0.21112224  0.88424047     0.10500
C1176       C  0.42134366  0.18117671  0.88898917    -0.06600
C1177       C  0.43302844  0.16980145  0.91619244    -0.17800
C1178       C  0.44951941  0.18743071  0.93713146     0.10500
S1179       S  0.40712420  0.22891454  0.85195581    -0.32800
S1180       S  0.46785009  0.16946113  0.96794384    -0.32800
H1181       H  0.49773456  0.17903323  0.95900202     0.28600
H1182       H  0.40997716  0.25732278  0.86304826     0.28500
H1183       H  0.44815860  0.24899694  0.89557076     0.19100
H1184       H  0.43137636  0.14673603  0.92007930     0.19100
C1185       C  0.43708424  0.32998701  0.91039511    -0.06700
C1186       C  0.40531374  0.33281263  0.91685061    -0.17800
C1187       C  0.38502651  0.34329742  0.89502022     0.10500
C1188       C  0.39676685  0.35177023  0.86626766    -0.06600
C1189       C  0.42881455  0.35190158  0.86108986    -0.17800
C1190       C  0.44885924  0.34022176  0.88211400     0.10500
S1191       S  0.34426005  0.34233161  0.90388531    -0.32800
S1192       S  0.48779017  0.33454830  0.86891557    -0.32800
H1193       H  0.48681525  0.30490753  0.87593876     0.28600
H1194       H  0.33717078  0.36591383  0.88542098     0.28500
H1195       H  0.39596092  0.32482759  0.93830481     0.19100
H1196       H  0.43804803  0.35816987  0.83904549     0.19100
C1197       C  0.56392595  0.20578904  0.87230300    -0.06700
C1198       C  0.56442283  0.17559903  0.87601191    -0.17800
C1199       C  0.58191078  0.15836095  0.85644444     0.10500
C1200       C  0.59896486  0.17159201  0.83257932    -0.06600
C1201       C  0.59996601  0.20183453  0.83017579    -0.17800
C1202       C  0.58215755  0.21900390  0.84915025     0.10500
S1203       S  0.58006307  0.11985401  0.86177948    -0.32800
S1204       S  0.58017570  0.25718908  0.84111930    -0.32800
H1205       H  0.60022346  0.25785543  0.81570280     0.28600
H1206       H  0.61120827  0.11559329  0.85415723     0.28500
H1207       H  0.55083142  0.16541747  0.89407728     0.19100
H1208       H  0.61309324  0.21186776  0.81166906     0.19100
C1209       C  0.12550440  0.08652650  0.71817086    -0.06700
C1210       C  0.12254732  0.05630939  0.71741424    -0.17800
C1211       C  0.11099373  0.04159980  0.69238690     0.10500
C1212       C  0.10349603  0.05741414  0.66604112    -0.06600
C1213       C  0.10939924  0.08748046  0.66555101    -0.17800
C1214       C  0.12058238  0.10220332  0.69127835     0.10500
S1215       S  0.10136884  0.00353118  0.69733407    -0.32800
S1216       S  0.12518990  0.14081221  0.68932323    -0.32800
H1217       H  0.15466551  0.14122051  0.70244928     0.28600
H1218       H  0.11677769  0.99919679  0.72485050     0.28500
H1219       H  0.12683863  0.04411961  0.73785038     0.19100
H1220       H  0.10343463  0.09969506  0.64556717     0.19100
C1221       C  0.09624401  0.40911420  0.64324316    -0.06700
C1222       C  0.06784086  0.40106517  0.63003973    -0.17800
C1223       C  0.05208197  0.42127304  0.61241489     0.10500
C1224       C  0.06351328  0.45011382  0.61185680    -0.06600
C1225       C  0.09567068  0.45342770  0.61428718    -0.17800
C1226       C  0.11209808  0.43375178  0.63147929     0.10500
S1227       S  0.01642761  0.41122552  0.59383205    -0.32800
S1228       S  0.15217442  0.44186042  0.63941254    -0.32800
H1229       H  0.15933206  0.41359733  0.64801809     0.28600
H1230       H  0.01826413  0.38145402  0.59945473     0.28500
H1231       H  0.05652221  0.38071003  0.63610775     0.19100
H1232       H  0.10769906  0.47155845  0.60385118     0.19100
C1233       C  0.94192954  0.07787435  0.68650477    -0.06700
C1234       C  0.97165023  0.07254910  0.69678690    -0.17800
C1235       C  0.99175679  0.05496040  0.68096290     0.10500
C1236       C  0.98357754  0.04404888  0.65160096    -0.06600
C1237       C  0.95429781  0.05099181  0.64028767    -0.17800
C1238       C  0.93339501  0.06747986  0.65748401     0.10500
S1239       S  0.02476629  0.04296828  0.70232276    -0.32800
S1240       S  0.89520063  0.07174612  0.64280343    -0.32800
H1241       H  0.89677034  0.10199955  0.64491887     0.28600
H1242       H  0.02666330  0.06623114  0.72277531     0.28500
H1243       H  0.97839081  0.08040888  0.71897562     0.19100
H1244       H  0.94649380  0.04182328  0.61909426     0.19100
C1245       C  0.95451550  0.43193758  0.68283592    -0.06700
C1246       C  0.96299710  0.40613870  0.69688066    -0.17800
C1247       C  0.94163648  0.39034099  0.71479675     0.10500
C1248       C  0.91257891  0.40183445  0.72113511    -0.06600
C1249       C  0.90248202  0.42476334  0.70354302    -0.17800
C1250       C  0.92272017  0.43890159  0.68308605     0.10500
S1251       S  0.95200292  0.35551541  0.72865030    -0.32800
S1252       S  0.90631124  0.46465838  0.65757294    -0.32800
H1253       H  0.92897234  0.46147101  0.63467012     0.28600
H1254       H  0.92216986  0.34658029  0.73829744     0.28500
H1255       H  0.98650419  0.39886933  0.69509528     0.19100
H1256       H  0.87929163  0.43254566  0.70676385     0.19100
C1257       C  0.52839942  0.19224877  0.63619752    -0.06700
C1258       C  0.55824022  0.19760833  0.62365028    -0.17800
C1259       C  0.58356278  0.18159166  0.63287481     0.10500
C1260       C  0.57849559  0.15772649  0.65234500    -0.06600
C1261       C  0.54838149  0.15022112  0.66154818    -0.17800
C1262       C  0.52458186  0.16927176  0.65753731     0.10500
S1263       S  0.62176509  0.19394973  0.62116670    -0.32800
S1264       S  0.49319403  0.16718202  0.68536225    -0.32800
H1265       H  0.50754205  0.14962458  0.70676693     0.28600
H1266       H  0.63659808  0.16807737  0.62756560     0.28500
H1267       H  0.56280606  0.21642502  0.60960822     0.19100
H1268       H  0.54463590  0.13228777  0.67703829     0.19100
C1269       C  0.43418903  0.27602849  0.64596918    -0.06700
C1270       C  0.43569129  0.30502910  0.63613895    -0.17800
C1271       C  0.42090250  0.32679544  0.65287136     0.10500
C1272       C  0.40234697  0.31911330  0.67844155    -0.06600
C1273       C  0.39615944  0.28996475  0.68427879    -0.17800
C1274       C  0.41426356  0.26888842  0.67129758     0.10500
S1275       S  0.42967115  0.36377598  0.64301893    -0.32800
S1276       S  0.41677486  0.23574896  0.69327791    -0.32800
H1277       H  0.39100417  0.23919522  0.71261888     0.28600
H1278       H  0.39950886  0.37305999  0.64876909     0.28500
H1279       H  0.45148347  0.31135669  0.61791454     0.19100
H1280       H  0.38132440  0.28427740  0.70351734     0.19100
C1281       C  0.55021462  0.29463636  0.69349581    -0.06700
C1282       C  0.54052468  0.32105190  0.70594691    -0.17800
C1283       C  0.56118369  0.33985672  0.72084124     0.10500
C1284       C  0.59129563  0.33102726  0.72663130    -0.06600
C1285       C  0.60217824  0.30669083  0.71157541    -0.17800
C1286       C  0.58262320  0.28963264  0.69333672     0.10500
S1287       S  0.54814143  0.37493103  0.73184609    -0.32800
S1288       S  0.60152732  0.26421329  0.66892880    -0.32800
H1289       H  0.58077464  0.26750003  0.64486041     0.28600
H1290       H  0.57740477  0.38699458  0.73860319     0.28500
H1291       H  0.51665000  0.32713261  0.70491652     0.19100
H1292       H  0.62594849  0.30056772  0.71458758     0.19100
C1293       C  0.37523244  0.14101119  0.69984545    -0.06700
C1294       C  0.39911882  0.12561087  0.68628686    -0.17800
C1295       C  0.41154593  0.13414306  0.65796348     0.10500
C1296       C  0.40215117  0.16043304  0.64469425    -0.06600
C1297       C  0.37356709  0.17100315  0.65488142    -0.17800
C1298       C  0.36054211  0.16211195  0.68265855     0.10500
S1299       S  0.43690965  0.10948505  0.63921248    -0.32800
S1300       S  0.32733150  0.18087085  0.69647267    -0.32800
H1301       H  0.31643632  0.15895054  0.71625400     0.28600
H1302       H  0.43184113  0.12064662  0.60997000     0.28500
H1303       H  0.40891228  0.10765196  0.69826667     0.19100
H1304       H  0.36296216  0.18858767  0.64317144     0.19100
C1305       C  0.46149640  0.75697556  0.13523888     0.29400
C1306       C  0.50624334  0.71715438  0.13301114     0.29400
C1307       C  0.45036688  0.72543440  0.13170362    -0.06800
C1308       C  0.48333400  0.75995464  0.10698541    -0.07500
C1309       C  0.48485821  0.75790411  0.16127528    -0.07400
C1310       C  0.47292304  0.70535368  0.13078374    -0.06800
C1311       C  0.50716262  0.73895172  0.10605067    -0.07500
C1312       C  0.50693484  0.73696003  0.16087183    -0.07400
C1313       C  0.45835576  0.67869395  0.12844705    -0.32800
N1314       N  0.42707505  0.68162789  0.12985674     0.13700
C1315       C  0.42247663  0.71066979  0.12917020    -0.32800
H1316       H  0.40036326  0.72087234  0.13052946     0.15600
C1317       C  0.51271873  0.73322940  0.07569385    -0.31800
N1318       N  0.49424280  0.74937728  0.05853464     0.12400
C1319       C  0.47589990  0.76514009  0.07686162    -0.31800
C1320       C  0.53285826  0.74885257  0.17490352    -0.32100
N1321       N  0.52846604  0.77690048  0.18219345     0.12900
H1322       H  0.55406155  0.73755008  0.17765959     0.15500
C1323       C  0.49909483  0.78234417  0.17380122    -0.32100
H1324       H  0.48949446  0.80358677  0.17324835     0.15500
H1325       H  0.45689692  0.77773260  0.06897305     0.15500
H1326       H  0.47048165  0.65882950  0.12863733     0.15600
H1327       H  0.52718118  0.71651286  0.06669706     0.15500
C1328       C  0.00745308  0.52584335  0.13607163     0.29400
C1329       C  0.04231320  0.98004620  0.12127515     0.29400
C1330       C  0.00195892  0.99711609  0.15673791    -0.06800
C1331       C  0.00303345  0.51389240  0.10331145    -0.07500
C1332       C  0.04171629  0.53441569  0.13471869    -0.07400
C1333       C  0.02153012  0.97462053  0.14977191    -0.06800
C1334       C  0.01815970  0.98711873  0.09728033    -0.07500
C1335       C  0.06219368  0.51281242  0.12729334    -0.07400
C1336       C  0.00579288  0.94988947  0.16069264    -0.32800
N1337       N  0.97827087  0.95691026  0.17328770     0.13700
C1338       C  0.97652985  0.98577772  0.17195452    -0.32800
H1339       H  0.95683935  0.99792097  0.17928958     0.15600
C1340       C  0.01480583  0.98014996  0.06730255    -0.31800
N1341       N  0.99801078  0.50378560  0.05422236     0.12400
C1342       C  0.98788368  0.52116923  0.07688204    -0.31800
C1343       C  0.09113593  0.52401824  0.13527082    -0.32100
N1344       N  0.08826814  0.55093911  0.14682901     0.14500
H1345       H  0.11241078  0.51267367  0.13679450     0.15500
C1346       C  0.05835468  0.55804655  0.14482471    -0.32100
H1347       H  0.04874283  0.57723268  0.15476525     0.15500
H1348       H  0.97200684  0.53842588  0.07361846     0.15500
H1349       H  0.01262728  0.92790361  0.15797047     0.15600
H1350       H  0.02869420  0.96540731  0.05429705     0.15500
C1351       C  0.47966356  0.74388506  0.44336814     0.29400
C1352       C  0.52951487  0.78050693  0.45459512     0.29400
C1353       C  0.47337748  0.77639971  0.44298698    -0.06800
C1354       C  0.48900519  0.74335491  0.97713281    -0.07500
C1355       C  0.50811468  0.74103868  0.42257052    -0.07400
C1356       C  0.49859642  0.79514456  0.44704575    -0.06800
C1357       C  0.51422558  0.76312079  0.98121494    -0.07500
C1358       C  0.53305873  0.75949901  0.42768278    -0.07400
C1359       C  0.48884126  0.82201654  0.43754418    -0.32800
N1360       N  0.45850356  0.82001880  0.42975394     0.13700
C1361       C  0.44867899  0.79250707  0.43471117    -0.32800
H1362       H  0.42588508  0.78413298  0.42899761     0.15600
C1363       C  0.51834120  0.76694242  0.01176182    -0.31800
N1364       N  0.49625430  0.75119232  0.02666443     0.12400
C1365       C  0.47779757  0.73713810  0.00626886    -0.31800
C1366       C  0.55677791  0.75012790  0.40900606    -0.32100
N1367       N  0.54703264  0.72642389  0.39354474     0.12900
H1368       H  0.58014475  0.75860121  0.40748644     0.15500
C1369       C  0.51733722  0.72048284  0.40183986    -0.32100
H1370       H  0.50384061  0.70190570  0.39426305     0.15500
H1371       H  0.45730318  0.72440248  0.01223361     0.15500
H1372       H  0.50326862  0.84106053  0.43396892     0.15600
H1373       H  0.53510987  0.78124447  0.02247917     0.15500
C1374       C  0.96056522  0.98849982  0.44930104     0.29400
C1375       C  0.00371660  0.53604648  0.44523601     0.29400
C1376       C  0.94832097  0.52028210  0.44656754    -0.06800
C1377       C  0.97649313  0.98406594  0.97757202    -0.07500
C1378       C  0.98314407  0.98959693  0.42204121    -0.07400
C1379       C  0.96933683  0.54331150  0.44816152    -0.06800
C1380       C  0.99243618  0.51154060  0.97403033    -0.07500
C1381       C  0.00427692  0.01252333  0.42231512    -0.07400
C1382       C  0.95327049  0.56828669  0.44670976    -0.32800
N1383       N  0.92362142  0.56191648  0.43859537     0.13700
C1384       C  0.92107882  0.53252894  0.43735376    -0.32800
H1385       H  0.90298103  0.52101053  0.42555779     0.15600
C1386       C  0.00246766  0.52131368  0.00193814    -0.31800
N1387       N  0.98891989  0.50448050  0.02377853     0.12400
C1388       C  0.97037374  0.98018969  0.00824555    -0.31800
C1389       C  0.03027289  0.00367755  0.40692457    -0.32100
N1390       N  0.02474672  0.97743382  0.39451731     0.12900
H1391       H  0.05257613  0.01482916  0.40684755     0.15500
C1392       C  0.99610589  0.96846222  0.40385939    -0.32100
H1393       H  0.98625406  0.94735059  0.39904852     0.15500
H1394       H  0.95322745  0.96551251  0.01825397     0.15500
H1395       H  0.96413282  0.58950100  0.44732538     0.15600
H1396       H  0.01765369  0.53968111  0.00639756     0.15500
Fe1397     Fe  0.60734154  0.83205998  0.32899632     1.65800
Fe1398     Fe  0.62543585  0.89698190  0.35513724     1.73200
Fe1399     Fe  0.66133594  0.87320435  0.29146881     1.54400
O1400       O  0.67748853  0.83084013  0.29220144    -0.82200
O1401       O  0.64413520  0.93152364  0.33153331    -0.80500
O1402       O  0.64184461  0.80444285  0.31742720    -0.84700
O1403       O  0.59443602  0.83363434  0.28388903    -0.79600
O1404       O  0.69363272  0.88464923  0.32473494    -0.81400
O1405       O  0.58218109  0.90283678  0.33488913    -0.84100
C1406       C  0.60568197  0.84374645  0.25908784     0.96600
C1407       C  0.66670612  0.80665586  0.30203253     1.04100
O1408       O  0.63204229  0.86703997  0.32464821    -1.13100
O1409       O  0.60581761  0.87013575  0.38853639    -0.75500
O1410       O  0.61939877  0.82702839  0.37400331    -0.79000
O1411       O  0.63005648  0.85998826  0.25774557    -0.79700
C1412       C  0.61015927  0.84388081  0.39458276     0.95600
O1413       O  0.57010642  0.85684900  0.34145009    -0.77700
O1414       O  0.66929010  0.88840292  0.37059624    -0.82900
C1415       C  0.64756819  0.93685730  0.30368570     0.98200
C1416       C  0.69346294  0.88467693  0.35399440     1.04100
O1417       O  0.64918900  0.91652320  0.28435761    -0.78500
C1418       C  0.56380850  0.88118649  0.33029415     1.02400
Fe1419     Fe  0.61110792  0.66507105  0.23784278     1.65800
Fe1420     Fe  0.62681455  0.59920633  0.21355828     1.73200
Fe1421     Fe  0.66384641  0.62659784  0.27499957     1.54400
O1422       O  0.67894241  0.67030942  0.27307933    -0.82200
O1423       O  0.64512264  0.56586873  0.23758149    -0.80500
O1424       O  0.64869940  0.69277230  0.24067968    -0.84700
O1425       O  0.60366528  0.66888574  0.28332156    -0.79600
O1426       O  0.69579144  0.61643521  0.24070000    -0.81400
O1427       O  0.58360901  0.59274728  0.23501919    -0.84100
C1428       C  0.61313016  0.65877501  0.30819253     0.96600
C1429       C  0.67064852  0.69312704  0.25942284     1.04100
O1430       O  0.63407337  0.63037520  0.24277690    -1.13100
O1431       O  0.60448382  0.62282131  0.18082044    -0.75500
O1432       O  0.61866454  0.66679632  0.19170384    -0.79000
O1433       O  0.63310250  0.63899899  0.30957824    -0.79700
C1434       C  0.60457399  0.64935899  0.17482191     0.95600
O1435       O  0.57037514  0.63944555  0.23652831    -0.77700
O1436       O  0.67116502  0.60845184  0.19595001    -0.82900
C1437       C  0.64915556  0.56132115  0.26540654     0.98200
C1438       C  0.69573071  0.61334442  0.21162383     1.04100
O1439       O  0.65234770  0.58241376  0.28380606    -0.78500
C1440       C  0.56443809  0.61259086  0.24159802     1.02400
Fe1441     Fe  0.39718022  0.83874861  0.27417539     1.65800
Fe1442     Fe  0.38648955  0.89881253  0.23363586     1.73200
Fe1443     Fe  0.33793178  0.87799702  0.29241066     1.54400
O1444       O  0.32786155  0.83271658  0.29679936    -0.82200
O1445       O  0.38180864  0.93448827  0.26092554    -0.80500
O1446       O  0.36037545  0.81265742  0.26414608    -0.84700
O1447       O  0.38651720  0.83753262  0.32020200    -0.79600
O1448       O  0.31085553  0.87827197  0.25489630    -0.81400
O1449       O  0.43415900  0.89755072  0.24686498    -0.84100
C1450       C  0.38321532  0.85891435  0.33768568     0.96600
C1451       C  0.33639575  0.81115877  0.28080413     1.04100
O1452       O  0.37361957  0.87228412  0.26613796    -1.13100
O1453       O  0.39146394  0.86646938  0.20141804    -0.75500
O1454       O  0.41285750  0.83369999  0.23024023    -0.79000
O1455       O  0.36580624  0.87926990  0.33051159    -0.79700
C1456       C  0.40453249  0.84263781  0.20449184     0.95600
O1457       O  0.43315028  0.86476567  0.28422833    -0.77700
O1458       O  0.34024810  0.90088071  0.21890132    -0.82900
C1459       C  0.36079974  0.94142462  0.27969764     0.98200
C1460       C  0.31457941  0.88954751  0.22865359     1.04100
O1461       O  0.34173591  0.92294982  0.29115792    -0.78500
C1462       C  0.44714492  0.88413824  0.26873162     1.02400
Fe1463     Fe  0.39970720  0.66536746  0.29215713     1.65800
Fe1464     Fe  0.38604507  0.60988725  0.34158917     1.73200
Fe1465     Fe  0.33322022  0.62582764  0.28645861     1.54400
O1466       O  0.32359031  0.67014864  0.28214707    -0.82200
O1467       O  0.37437300  0.57155897  0.32073551    -0.80500
O1468       O  0.36547972  0.69425644  0.29856930    -0.84700
O1469       O  0.38850991  0.65969696  0.24696951    -0.79600
O1470       O  0.30991176  0.62621500  0.32721297    -0.81400
O1471       O  0.43135156  0.60596557  0.32241598    -0.84100
C1472       C  0.37254936  0.64177030  0.23161509     0.96600
C1473       C  0.33751847  0.69343359  0.29045437     1.04100
O1474       O  0.37296691  0.63342109  0.30679670    -1.13100
O1475       O  0.39881294  0.64470949  0.36831351    -0.75500
O1476       O  0.41557424  0.67687781  0.33450398    -0.79000
O1477       O  0.35288109  0.62445079  0.24359615    -0.79700
C1478       C  0.41124805  0.66891063  0.36177703     0.95600
O1479       O  0.43566809  0.63861490  0.28492186    -0.77700
O1480       O  0.34227090  0.61198418  0.36328515    -0.82900
C1481       C  0.35479083  0.56348223  0.30114845     0.98200
C1482       C  0.31571188  0.61992421  0.35457472     1.04100
O1483       O  0.33733434  0.58096928  0.28771339    -0.78500
C1484       C  0.44589817  0.61747041  0.29958602     1.02400
Fe1485     Fe  0.10803904  0.92388383  0.24286436     1.65800
Fe1486     Fe  0.12290513  0.85784392  0.22101486     1.73200
Fe1487     Fe  0.15704085  0.88474745  0.28450110     1.54400
O1488       O  0.17152126  0.92816861  0.28515569    -0.82200
O1489       O  0.13897537  0.82463280  0.24626414    -0.80500
O1490       O  0.14470029  0.95208885  0.25129197    -0.84700
O1491       O  0.09542335  0.92573650  0.28749590    -0.79600
O1492       O  0.19103273  0.87620205  0.25183527    -0.81400
O1493       O  0.07895271  0.85250371  0.24106689    -0.84100
C1494       C  0.10200867  0.91491036  0.31306496     0.96600
C1495       C  0.16490660  0.95149746  0.27186618     1.04100
O1496       O  0.12980258  0.88889712  0.25008804    -1.13100
O1497       O  0.10471003  0.88234351  0.18597515    -0.75500
O1498       O  0.12065618  0.92599834  0.19762649    -0.79000
O1499       O  0.12246909  0.89565183  0.31637737    -0.79700
C1500       C  0.11014720  0.90828600  0.17841953     0.95600
O1501       O  0.06822646  0.89867317  0.23449340    -0.77700
O1502       O  0.16830858  0.86629815  0.20626890    -0.82900
C1503       C  0.14684904  0.81959924  0.27303165     0.98200
C1504       C  0.19199982  0.87245002  0.22281547     1.04100
O1505       O  0.14883407  0.84011835  0.29215383    -0.78500
C1506       C  0.06118836  0.87378195  0.24554806     1.02400
Fe1507     Fe  0.11372220  0.59427856  0.31581610     1.65800
Fe1508     Fe  0.12904074  0.65631937  0.35344686     1.73200
Fe1509     Fe  0.17676648  0.63377182  0.29525589     1.54400
O1510       O  0.18502808  0.58861511  0.29368465    -0.82200
O1511       O  0.14509733  0.69212516  0.33066430    -0.80500
O1512       O  0.14967142  0.56757222  0.32400591    -0.84700
O1513       O  0.12330101  0.59273378  0.27039637    -0.79600
O1514       O  0.20281323  0.63725438  0.33370933    -0.81400
O1515       O  0.08547494  0.66196609  0.33182180    -0.84100
C1516       C  0.13662011  0.60710683  0.24931996     0.96600
C1517       C  0.17305697  0.56600283  0.30641786     1.04100
O1518       O  0.13977331  0.62849872  0.32161835    -1.13100
O1519       O  0.10921608  0.62831078  0.38517490    -0.75500
O1520       O  0.09864980  0.58840508  0.35976481    -0.79000
O1521       O  0.15316435  0.62943110  0.25476827    -0.79700
C1522       C  0.09705099  0.60340402  0.38354575     0.95600
O1523       O  0.07736261  0.62022924  0.30663033    -0.77700
O1524       O  0.17277613  0.64997522  0.37361269    -0.82900
C1525       C  0.16117141  0.69855281  0.30750424     0.98200
C1526       C  0.19865816  0.64205072  0.36194766     1.04100
O1527       O  0.17372163  0.67914966  0.29136747    -0.78500
C1528       C  0.06990727  0.64591035  0.31313244     1.02400
Fe1529     Fe  0.89516114  0.91969990  0.31526463     1.65800
Fe1530     Fe  0.88611328  0.85346305  0.34605440     1.73200
Fe1531     Fe  0.84217466  0.87501746  0.28591294     1.54400
O1532       O  0.83120970  0.91856633  0.28020270    -0.82200
O1533       O  0.87897137  0.81842069  0.31872498    -0.80500
O1534       O  0.85418683  0.94031518  0.31842499    -0.84700
O1535       O  0.89617592  0.92014819  0.26802116    -0.79600
O1536       O  0.81202241  0.87090370  0.32177833    -0.81400
O1537       O  0.93267765  0.85518143  0.33022890    -0.84100
C1538       C  0.89181690  0.90139437  0.24724963     0.96600
C1539       C  0.83584615  0.94075556  0.29653612     1.04100
O1540       O  0.87484817  0.88212698  0.31580490    -1.13100
O1541       O  0.89639466  0.88140624  0.38118969    -0.75500
O1542       O  0.89726889  0.92515257  0.36138687    -0.79000
O1543       O  0.87383571  0.87940016  0.25061966    -0.79700
C1544       C  0.89900211  0.90840563  0.38381987     0.95600
O1545       O  0.93716120  0.90062737  0.31289500    -0.77700
O1546       O  0.83938395  0.85280529  0.36094382    -0.82900
C1547       C  0.86114665  0.81192068  0.29726111     0.98200
C1548       C  0.81430371  0.86178894  0.34905359     1.04100
O1549       O  0.84524651  0.83046083  0.28397421    -0.78500
C1550       C  0.94847058  0.87604882  0.31783975     1.02400
Fe1551     Fe  0.90878754  0.59819700  0.28008041     1.65800
Fe1552     Fe  0.88871226  0.64641195  0.22760013     1.73200
Fe1553     Fe  0.83788314  0.62599511  0.28524930     1.54400
O1554       O  0.83379460  0.58049704  0.28743635    -0.82200
O1555       O  0.87500670  0.68317665  0.24854950    -0.80500
O1556       O  0.87985769  0.56377377  0.27257687    -0.84700
O1557       O  0.89441687  0.59935793  0.32456794    -0.79600
O1558       O  0.81435850  0.62327289  0.24563341    -0.81400
O1559       O  0.93466140  0.65542214  0.24369146    -0.84100
C1560       C  0.87538831  0.61315975  0.34040427     0.96600
C1561       C  0.85129535  0.56003318  0.27891266     1.04100
O1562       O  0.87807308  0.62372137  0.26425628    -1.13100
O1563       O  0.90370597  0.61180685  0.20228239    -0.75500
O1564       O  0.92985303  0.59129306  0.23859634    -0.79000
O1565       O  0.85509357  0.62857587  0.32873782    -0.79700
C1566       C  0.92469515  0.59528926  0.21063374     0.95600
O1567       O  0.93808799  0.63253600  0.28827842    -0.77700
O1568       O  0.84467156  0.63970361  0.20772521    -0.82900
C1569       C  0.85596286  0.69002772  0.26928556     0.98200
C1570       C  0.81882565  0.62955713  0.21798926     1.04100
O1571       O  0.83934724  0.67143746  0.28409783    -0.78500
C1572       C  0.94884510  0.65021800  0.26859282     1.02400
C1573       C  0.85919008  0.78138276  0.28782374    -0.06700
C1574       C  0.83036487  0.76652006  0.28813912    -0.17800
C1575       C  0.82810636  0.73664820  0.28251996     0.10500
C1576       C  0.85531191  0.72124401  0.27664680    -0.06600
C1577       C  0.88390467  0.73642846  0.27607951    -0.17800
C1578       C  0.88616351  0.76599383  0.28150218     0.10500
S1579       S  0.79005849  0.71981196  0.28233538    -0.32800
S1580       S  0.92432527  0.78273485  0.27970902    -0.32800
H1581       H  0.91482930  0.80979886  0.26961235     0.28600
H1582       H  0.79629232  0.70083700  0.25824262     0.28500
H1583       H  0.80955551  0.77816714  0.29320420     0.19100
H1584       H  0.90495395  0.72511928  0.27115793     0.19100
C1585       C  0.83924998  0.52999586  0.27775066    -0.06700
C1586       C  0.82523359  0.51829286  0.30411493    -0.17800
C1587       C  0.81363790  0.98909371  0.30834492     0.10500
C1588       C  0.82498818  0.96916047  0.28701744    -0.06600
C1589       C  0.83625973  0.97930422  0.25891327    -0.17800
C1590       C  0.84815876  0.51113654  0.25402925     0.10500
S1591       S  0.79740872  0.97792624  0.34453182    -0.32800
S1592       S  0.86690775  0.52296970  0.21900959    -0.32800
H1593       H  0.86059881  0.55235656  0.22113229     0.28600
H1594       H  0.78984607  0.94949331  0.33563804     0.28500
H1595       H  0.81858285  0.53245903  0.32251136     0.19100
H1596       H  0.84508940  0.96410806  0.24246219     0.19100
C1597       C  0.04152994  0.65622655  0.29756046    -0.06700
C1598       C  0.01918485  0.67179308  0.31352385    -0.17800
C1599       C  0.98923157  0.67482963  0.30177713     0.10500
C1600       C  0.98091283  0.66133617  0.27407241    -0.06600
C1601       C  0.00433848  0.64943871  0.25634283    -0.17800
C1602       C  0.03447387  0.64705838  0.26748384     0.10500
S1603       S  0.96238358  0.69605393  0.32305298    -0.32800
S1604       S  0.06331152  0.63113678  0.24321001    -0.32800
H1605       H  0.04445168  0.62565862  0.21793557     0.28600
H1606       H  0.94053025  0.69806755  0.29988505     0.28500
H1607       H  0.02440111  0.68018884  0.33589887     0.19100
H1608       H  0.99829320  0.63951788  0.23486873     0.19100
C1609       C  0.03305647  0.87144313  0.26582819    -0.06700
C1610       C  0.02511141  0.89662157  0.28150306    -0.17800
C1611       C  0.00042255  0.89722828  0.30206804     0.10500
C1612       C  0.98082354  0.87254264  0.30620447    -0.06600
C1613       C  0.98967856  0.84659680  0.29232038    -0.17800
C1614       C  0.01542938  0.84581289  0.27213129     0.10500
S1615       S  0.99508673  0.93075458  0.32207735    -0.32800
S1616       S  0.02245602  0.81233480  0.25295429    -0.32800
H1617       H  0.02918895  0.82529867  0.22462504     0.28600
H1618       H  0.98235895  0.91763522  0.34843070     0.28500
H1619       H  0.03852940  0.91640607  0.27809383     0.19100
H1620       H  0.97499539  0.82746623  0.29501077     0.19100
C1621       C  0.15366621  0.78870614  0.28135616    -0.06700
C1622       C  0.15683110  0.78101765  0.31204096    -0.17800
C1623       C  0.16204482  0.75237559  0.32092987     0.10500
C1624       C  0.16327644  0.72995708  0.29892843    -0.06600
C1625       C  0.16195171  0.73772068  0.26825777    -0.17800
C1626       C  0.15756828  0.76649333  0.25911260     0.10500
S1627       S  0.16769798  0.74605987  0.36088347    -0.32800
S1628       S  0.15699559  0.77361258  0.21864838    -0.32800
H1629       H  0.16642500  0.74640185  0.20862331     0.28600
H1630       H  0.18842890  0.72360774  0.35637760     0.28500
H1631       H  0.15516167  0.79744416  0.32942629     0.19100
H1632       H  0.16300270  0.72084404  0.25133114     0.19100
C1633       C  0.17865851  0.97965220  0.28245563    -0.06700
C1634       C  0.18497685  0.00171405  0.26112513    -0.17800
C1635       C  0.19056078  0.52834414  0.26783722     0.10500
C1636       C  0.18321538  0.53627928  0.29818146    -0.06600
C1637       C  0.17759186  0.51402379  0.31941381    -0.17800
C1638       C  0.17918088  0.98696495  0.31373165     0.10500
S1639       S  0.20475571  0.55485163  0.24059003    -0.32800
S1640       S  0.17274046  0.96076185  0.34350949    -0.32800
H1641       H  0.19701599  0.94341187  0.33351612     0.28600
H1642       H  0.20959117  0.53555201  0.21646265     0.28500
H1643       H  0.18543637  0.99624730  0.23721268     0.19100
H1644       H  0.17303211  0.51939709  0.34298497     0.19100
C1645       C  0.22598825  0.63580118  0.38064188    -0.06700
C1646       C  0.23517038  0.60689917  0.37991151    -0.17800
C1647       C  0.26649647  0.60002217  0.37722025     0.10500
C1648       C  0.28923738  0.62236687  0.37604239    -0.06600
C1649       C  0.28035839  0.65040731  0.38364008    -0.17800
C1650       C  0.24896298  0.65742170  0.38555061     0.10500
S1651       S  0.27573335  0.56300077  0.36979871    -0.32800
S1652       S  0.23967219  0.69484037  0.38926222    -0.32800
H1653       H  0.20904494  0.68951379  0.39926310     0.28600
H1654       H  0.30698978  0.56590811  0.37796129     0.28500
H1655       H  0.21784986  0.58990316  0.37648922     0.19100
H1656       H  0.29775740  0.66757011  0.38423178     0.19100
C1657       C  0.28686065  0.88840872  0.20957333    -0.06700
C1658       C  0.27493127  0.86062186  0.20330487    -0.17800
C1659       C  0.24303503  0.85466651  0.20380542     0.10500
C1660       C  0.22263293  0.87742710  0.20857386    -0.06600
C1661       C  0.23460331  0.90591546  0.20912673    -0.17800
C1662       C  0.26655520  0.91162661  0.20977573     0.10500
S1663       S  0.23027386  0.81735622  0.20376409    -0.32800
S1664       S  0.27981433  0.94828414  0.21599369    -0.32800
H1665       H  0.30938650  0.94464573  0.20321429     0.28600
H1666       H  0.20071686  0.82242352  0.19243129     0.28500
H1667       H  0.29054820  0.84287395  0.20229452     0.19100
H1668       H  0.21903757  0.92356261  0.21270020     0.19100
C1669       C  0.32217679  0.72154257  0.28934745    -0.06700
C1670       C  0.31862026  0.73428361  0.26081622    -0.17800
C1671       C  0.31796789  0.76431829  0.25773948     0.10500
C1672       C  0.32127160  0.78218491  0.28365243    -0.06600
C1673       C  0.32003670  0.76926743  0.31248217    -0.17800
C1674       C  0.32048040  0.73914237  0.31551871     0.10500
S1675       S  0.31623443  0.77887832  0.21989466    -0.32800
S1676       S  0.32200288  0.72429285  0.35323463    -0.32800
H1677       H  0.31124369  0.69675824  0.34440902     0.28600
H1678       H  0.30414905  0.80501889  0.22983342     0.28500
H1679       H  0.31960054  0.72110179  0.24058764     0.19100
H1680       H  0.32227321  0.78257718  0.33261038     0.19100
C1681       C  0.35794003  0.97254288  0.28715656    -0.06700
C1682       C  0.36479638  0.99286782  0.26406846    -0.17800
C1683       C  0.35827453  0.52180107  0.26410594     0.10500
C1684       C  0.35303317  0.53226584  0.29379494    -0.06600
C1685       C  0.34885201  0.51233358  0.31769443    -0.17800
C1686       C  0.34830187  0.98265102  0.31603182     0.10500
S1687       S  0.36488481  0.54537917  0.23189105    -0.32800
S1688       S  0.34026928  0.95905699  0.34789835    -0.32800
H1689       H  0.36518539  0.94098143  0.34182130     0.28600
H1690       H  0.38227488  0.56649847  0.24762200     0.28500
H1691       H  0.37206284  0.98559244  0.24176555     0.19100
H1692       H  0.34511017  0.52015965  0.34061673     0.19100
C1693       C  0.53476893  0.60552809  0.25793496    -0.06700
C1694       C  0.53252894  0.61385109  0.28864555    -0.17800
C1695       C  0.50391532  0.61452160  0.30415177     0.10500
C1696       C  0.47641212  0.60710587  0.28874302    -0.06600
C1697       C  0.47879327  0.59744708  0.25844413    -0.17800
C1698       C  0.50750497  0.59629674  0.24305745     0.10500
S1699       S  0.50341699  0.62891568  0.34216192    -0.32800
S1700       S  0.50729834  0.58576380  0.20365996    -0.32800
H1701       H  0.53750339  0.57544827  0.20288238     0.28600
H1702       H  0.47990834  0.60993143  0.35296464     0.28500
H1703       H  0.55314280  0.62151805  0.30019072     0.19100
H1704       H  0.45784049  0.59250016  0.24600058     0.19100
C1705       C  0.72641935  0.61658079  0.19661379    -0.06700
C1706       C  0.74564622  0.59284060  0.19653202    -0.17800
C1707       C  0.77788573  0.59674101  0.19684736     0.10500
C1708       C  0.79136238  0.62484489  0.19856096    -0.06600
C1709       C  0.77228685  0.64839406  0.19387101    -0.17800
C1710       C  0.73990306  0.64439771  0.19256010     0.10500
S1711       S  0.80068063  0.56509840  0.19954344    -0.32800
S1712       S  0.71550765  0.67510355  0.18967995    -0.32800
H1713       H  0.73944751  0.69571788  0.18440830     0.28600
H1714       H  0.82785682  0.57880552  0.18813264     0.28500
H1715       H  0.73557934  0.57132455  0.19934326     0.19100
H1716       H  0.78226039  0.67002828  0.19515331     0.19100
C1717       C  0.53508487  0.88315814  0.31172315    -0.06700
C1718       C  0.52332190  0.91022675  0.30352053    -0.17800
C1719       C  0.49601305  0.91230799  0.28630854     0.10500
C1720       C  0.48047054  0.88690122  0.27646426    -0.06600
C1721       C  0.49394448  0.86034440  0.28225895    -0.17800
C1722       C  0.51976947  0.85778304  0.30044276     0.10500
S1723       S  0.48164180  0.94750761  0.27848536    -0.32800
S1724       S  0.53118885  0.82122911  0.30900545    -0.32800
H1725       H  0.50869159  0.80582718  0.29233685     0.28600
H1726       H  0.47118395  0.94035033  0.24926339     0.28500
H1727       H  0.53499412  0.92983873  0.31110220     0.19100
H1728       H  0.48245449  0.84089016  0.27400095     0.19100
C1729       C  0.72267334  0.87676660  0.36807624    -0.06700
C1730       C  0.73142730  0.84824888  0.36315320    -0.17800
C1731       C  0.76251581  0.84100076  0.36205149     0.10500
C1732       C  0.78543179  0.86264583  0.36679179    -0.06600
C1733       C  0.77640935  0.89010668  0.37652956    -0.17800
C1734       C  0.74516469  0.89748992  0.37694165     0.10500
S1735       S  0.77146721  0.80545049  0.34844589    -0.32800
S1736       S  0.73591411  0.93446412  0.38446758    -0.32800
H1737       H  0.70484401  0.92886454  0.39268002     0.28600
H1738       H  0.80226985  0.80586360  0.35824178     0.28500
H1739       H  0.71418896  0.83237704  0.35611240     0.19100
H1740       H  0.79387865  0.90699116  0.37975670     0.19100
C1741       C  0.68093095  0.77919341  0.29233011    -0.06700
C1742       C  0.68384948  0.77430351  0.26094212    -0.17800
C1743       C  0.68421857  0.74610323  0.24905139     0.10500
C1744       C  0.68303514  0.72207486  0.26901941    -0.06600
C1745       C  0.68487908  0.72731146  0.30041050    -0.17800
C1746       C  0.68313716  0.75534525  0.31223790     0.10500
S1747       S  0.68344845  0.74114731  0.20836632    -0.32800
S1748       S  0.68078955  0.75877405  0.35298471    -0.32800
H1749       H  0.68902819  0.78818197  0.35397246     0.28600
H1750       H  0.68504651  0.77050716  0.20027508     0.28500
H1751       H  0.68218216  0.79242932  0.24557312     0.19100
H1752       H  0.68397729  0.70927621  0.31611551     0.19100
C1753       C  0.64916870  0.96799953  0.29471740    -0.06700
C1754       C  0.66701991  0.98758637  0.31230333    -0.17800
C1755       C  0.63591553  0.51974517  0.30263356     0.10500
C1756       C  0.64967149  0.53011152  0.27532033    -0.06600
C1757       C  0.66201413  0.50948034  0.25518183    -0.17800
C1758       C  0.63105082  0.97922528  0.27133183     0.10500
S1759       S  0.61676412  0.54309417  0.32913792    -0.32800
S1760       S  0.60433998  0.95705860  0.24982160    -0.32800
H1761       H  0.59423961  0.93988729  0.27459910     0.28600
H1762       H  0.60195043  0.55914158  0.30669108     0.28500
H1763       H  0.68066491  0.97942348  0.33075850     0.19100
H1764       H  0.67251894  0.51673915  0.23393074     0.19100
C1765       C  0.02603477  0.56122726  0.43666196    -0.06700
C1766       C  0.05633485  0.56233865  0.44840119    -0.17800
C1767       C  0.08068291  0.57754828  0.43311233     0.10500
C1768       C  0.07422597  0.59367748  0.40684047    -0.06600
C1769       C  0.04376017  0.59552003  0.39747384    -0.17800
C1770       C  0.02030627  0.57811036  0.41011158     0.10500
S1771       S  0.11952540  0.57318350  0.44631217    -0.32800
S1772       S  0.98681411  0.57277522  0.38610493    -0.32800
H1773       H  0.98787275  0.60035198  0.37265475     0.28600
H1774       H  0.13280356  0.59717511  0.43102567     0.28500
H1775       H  0.06197942  0.54868309  0.46736577     0.19100
H1776       H  0.03922241  0.60735190  0.37678246     0.19100
C1777       C  0.08640906  0.92893442  0.33902598    -0.06700
C1778       C  0.08637172  0.95920609  0.33753947    -0.17800
C1779       C  0.06590035  0.97525430  0.35470587     0.10500
C1780       C  0.04649464  0.96131613  0.37656331    -0.06600
C1781       C  0.04828095  0.93109132  0.38004191    -0.17800
C1782       C  0.06733098  0.91467152  0.36084886     0.10500
S1783       S  0.06328611  0.01280746  0.34449158    -0.32800
S1784       S  0.06471860  0.87595835  0.36393324    -0.32800
H1785       H  0.06809277  0.87048588  0.33266848     0.28600
H1786       H  0.03078469  0.01291163  0.34628246     0.28500
H1787       H  0.10067990  0.97043705  0.32062374     0.19100
H1788       H  0.03369476  0.92007871  0.39679542     0.19100
C1789       C  0.90690625  0.92121916  0.41338103    -0.06700
C1790       C  0.93489936  0.91378173  0.42659297    -0.17800
C1791       C  0.95060844  0.93344681  0.44545013     0.10500
C1792       C  0.93886015  0.96152309  0.44906870    -0.06600
C1793       C  0.90702488  0.96430583  0.44430465    -0.17800
C1794       C  0.89134546  0.94525863  0.42484901     0.10500
S1795       S  0.98734031  0.92315624  0.46016934    -0.32800
S1796       S  0.85276868  0.95386445  0.41348897    -0.32800
H1797       H  0.84446777  0.92591818  0.40358671     0.28600
H1798       H  0.97821030  0.92790324  0.49044359     0.28500
H1799       H  0.94617656  0.89423211  0.41965094     0.19100
H1800       H  0.89479841  0.98215742  0.45375372     0.19100
C1801       C  0.87781198  0.61011926  0.37343674    -0.06700
C1802       C  0.86152498  0.58713466  0.38754085    -0.17800
C1803       C  0.87349729  0.57362314  0.41332361     0.10500
C1804       C  0.90357198  0.58187885  0.42326190    -0.06600
C1805       C  0.91599147  0.60859818  0.41285158    -0.17800
C1806       C  0.90335064  0.62266908  0.38818841     0.10500
S1807       S  0.84995177  0.54677729  0.43330365    -0.32800
S1808       S  0.92324340  0.65454648  0.37407241    -0.32800
H1809       H  0.89849836  0.66456594  0.35692488     0.28600
H1810       H  0.82316948  0.54970645  0.41587510     0.28500
H1811       H  0.84088963  0.57829474  0.37694000     0.19100
H1812       H  0.93721675  0.61769501  0.42171473     0.19100
C1813       C  0.55832699  0.80001400  0.46038758    -0.06700
C1814       C  0.58763266  0.78895796  0.45416714    -0.17800
C1815       C  0.60830828  0.80452496  0.43501968     0.10500
C1816       C  0.59994345  0.83208720  0.42463244    -0.06600
C1817       C  0.57663392  0.84618946  0.44102198    -0.17800
C1818       C  0.55685112  0.83030915  0.46061507     0.10500
S1819       S  0.64302647  0.78728280  0.42253323    -0.32800
S1820       S  0.53301959  0.84919939  0.48751302    -0.32800
H1821       H  0.52160036  0.82425913  0.50249870     0.28600
H1822       H  0.65942939  0.81313901  0.41559653     0.28500
H1823       H  0.59191192  0.76651087  0.45897690     0.19100
H1824       H  0.57251591  0.86883930  0.43727602     0.19100
C1825       C  0.45381390  0.72476209  0.42915820    -0.06700
C1826       C  0.44221751  0.73528815  0.40140055    -0.17800
C1827       C  0.42503336  0.71847975  0.38134969     0.10500
C1828       C  0.42191332  0.68860120  0.38643897    -0.06600
C1829       C  0.43207486  0.67746175  0.41427916    -0.17800
C1830       C  0.44815373  0.69497783  0.43542285     0.10500
S1831       S  0.40871362  0.73604263  0.34864487    -0.32800
S1832       S  0.46410202  0.67682001  0.46740460    -0.32800
H1833       H  0.49476403  0.68453263  0.45923964     0.28600
H1834       H  0.41144993  0.76448352  0.35966973     0.28500
H1835       H  0.44934498  0.75632505  0.39306459     0.19100
H1836       H  0.42959123  0.65450987  0.41861952     0.19100
C1837       C  0.44107239  0.83950011  0.41137263    -0.06700
C1838       C  0.40890257  0.84070788  0.41650273    -0.17800
C1839       C  0.38901060  0.85033832  0.39393644     0.10500
C1840       C  0.40146972  0.85963140  0.36578625    -0.06600
C1841       C  0.43368504  0.86224462  0.36224771    -0.17800
C1842       C  0.45355084  0.85189278  0.38430488     0.10500
S1843       S  0.34797898  0.84689057  0.40088575    -0.32800
S1844       S  0.49386526  0.85123652  0.37411045    -0.32800
H1845       H  0.49504544  0.82098964  0.37617681     0.28600
H1846       H  0.34026262  0.87027173  0.38239420     0.28500
H1847       H  0.39900351  0.83159292  0.43723295     0.19100
H1848       H  0.44349518  0.86964697  0.34078541     0.19100
C1849       C  0.56613857  0.70909094  0.37418352    -0.06700
C1850       C  0.56633453  0.67890824  0.37811574    -0.17800
C1851       C  0.58421018  0.66139440  0.35904703     0.10500
C1852       C  0.60185955  0.67429092  0.33532039    -0.06600
C1853       C  0.60306732  0.70456190  0.33282833    -0.17800
C1854       C  0.58493491  0.72196118  0.35128998     0.10500
S1855       S  0.58231525  0.62298808  0.36494450    -0.32800
S1856       S  0.58342547  0.76011281  0.34304244    -0.32800
H1857       H  0.60045880  0.75970793  0.31561725     0.28600
H1858       H  0.61384835  0.61898695  0.35884481     0.28500
H1859       H  0.55228387  0.66896951  0.39599925     0.19100
H1860       H  0.61670733  0.71449527  0.31462591     0.19100
C1861       C  0.13336968  0.59452627  0.21864789    -0.06700
C1862       C  0.13197626  0.56425831  0.21792462    -0.17800
C1863       C  0.11917834  0.54908372  0.19377810     0.10500
C1864       C  0.10866707  0.56456993  0.16836837    -0.06600
C1865       C  0.11290713  0.59481959  0.16763415    -0.17800
C1866       C  0.12538019  0.60999101  0.19245600     0.10500
S1867       S  0.11189394  0.51065773  0.19882181    -0.32800
S1868       S  0.12707846  0.64875840  0.19075511    -0.32800
H1869       H  0.15684172  0.65116364  0.20310442     0.28600
H1870       H  0.12666454  0.50735508  0.22682463     0.28500
H1871       H  0.13805836  0.55238169  0.23804926     0.19100
H1872       H  0.10456499  0.60674465  0.14835787     0.19100
C1873       C  0.10027780  0.91910213  0.14842685    -0.06700
C1874       C  0.07231355  0.90846212  0.13610103    -0.17800
C1875       C  0.05509467  0.92628062  0.11708216     0.10500
C1876       C  0.06471670  0.95542410  0.11394162    -0.06600
C1877       C  0.09674859  0.96064821  0.11542690    -0.17800
C1878       C  0.11439005  0.94376289  0.13470537     0.10500
S1879       S  0.02037130  0.91281119  0.09902537    -0.32800
S1880       S  0.15348396  0.95567950  0.14256843    -0.32800
H1881       H  0.16342911  0.92858173  0.15228066     0.28600
H1882       H  0.02341712  0.88394990  0.10813475     0.28500
H1883       H  0.06254300  0.88787018  0.14355949     0.19100
H1884       H  0.10715280  0.97957196  0.10471977     0.19100
C1885       C  0.94566054  0.58100581  0.18841874    -0.06700
C1886       C  0.97425562  0.57303732  0.19970565    -0.17800
C1887       C  0.99425168  0.55586389  0.18331815     0.10500
C1888       C  0.98732563  0.54801135  0.15259659    -0.06600
C1889       C  0.95919627  0.55725478  0.14057755    -0.17800
C1890       C  0.93831769  0.57342613  0.15812853     0.10500
S1891       S  0.02581043  0.54097520  0.20484222    -0.32800
S1892       S  0.90176075  0.58145790  0.14156742    -0.32800
H1893       H  0.90616898  0.61141909  0.14517762     0.28600
H1894       H  0.02633088  0.56108371  0.22875775     0.28500
H1895       H  0.98035518  0.57882798  0.22272084     0.19100
H1896       H  0.95225423  0.55048397  0.11824386     0.19100
C1897       C  0.95392794  0.93734761  0.18401864    -0.06700
C1898       C  0.96158003  0.91185350  0.19908900    -0.17800
C1899       C  0.93900995  0.89574353  0.21526707     0.10500
C1900       C  0.90909024  0.90653867  0.21878507    -0.06600
C1901       C  0.90051268  0.92979396  0.20084459    -0.17800
C1902       C  0.92218123  0.94419642  0.18208399     0.10500
S1903       S  0.94976770  0.86242187  0.23240435    -0.32800
S1904       S  0.90749842  0.97019063  0.15578557    -0.32800
H1905       H  0.93120877  0.96667015  0.13400857     0.28600
H1906       H  0.91986034  0.84983022  0.23199560     0.28500
H1907       H  0.98532683  0.90509821  0.19942256     0.19100
H1908       H  0.87712991  0.93751142  0.20240842     0.19100
C1909       C  0.53063982  0.69428877  0.13669357    -0.06700
C1910       C  0.56036778  0.69867657  0.12357754    -0.17800
C1911       C  0.58569370  0.68302125  0.13367788     0.10500
C1912       C  0.58066659  0.66040450  0.15479005    -0.06600
C1913       C  0.55064425  0.65385730  0.16490528    -0.17800
C1914       C  0.52684042  0.67257360  0.15951255     0.10500
S1915       S  0.62382833  0.69412608  0.12056285    -0.32800
S1916       S  0.49510861  0.67155700  0.18699663    -0.32800
H1917       H  0.51007616  0.65660552  0.21017117     0.28600
H1918       H  0.63852426  0.66864944  0.12876118     0.28500
H1919       H  0.56478183  0.71648489  0.10809216     0.19100
H1920       H  0.54691154  0.63691287  0.18157447     0.19100
C1921       C  0.43616712  0.77795285  0.14426191    -0.06700
C1922       C  0.43843360  0.80690228  0.13421674    -0.17800
C1923       C  0.42600744  0.82944985  0.15188188     0.10500
C1924       C  0.40910981  0.82260296  0.17867136    -0.06600
C1925       C  0.40198116  0.79379495  0.18522551    -0.17800
C1926       C  0.41699592  0.77168524  0.17040979     0.10500
S1927       S  0.43496568  0.86657078  0.14231129    -0.32800
S1928       S  0.41724220  0.73805849  0.19160205    -0.32800
H1929       H  0.38769794  0.74033265  0.20505235     0.28600
H1930       H  0.45121869  0.86102030  0.11514506     0.28500
H1931       H  0.45346414  0.81226649  0.11510702     0.19100
H1932       H  0.38865845  0.78877400  0.20568527     0.19100
C1933       C  0.55064181  0.79777603  0.19517145    -0.06700
C1934       C  0.53995978  0.82342520  0.20858021    -0.17800
C1935       C  0.55993204  0.84226120  0.22445072     0.10500
C1936       C  0.59005044  0.83386452  0.23100548    -0.06600
C1937       C  0.60185453  0.81021866  0.21532377    -0.17800
C1938       C  0.58319373  0.79359268  0.19565613     0.10500
S1939       S  0.54713611  0.87790019  0.23320472    -0.32800
S1940       S  0.60330758  0.77036156  0.16976686    -0.32800
H1941       H  0.58262375  0.77439013  0.14576873     0.28600
H1942       H  0.57632496  0.88981445  0.24053466     0.28500
H1943       H  0.51603132  0.82920556  0.20679655     0.19100
H1944       H  0.62575414  0.80458722  0.21850315     0.19100
C1945       C  0.37730490  0.64207774  0.19853619    -0.06700
C1946       C  0.40212889  0.62717335  0.18610764    -0.17800
C1947       C  0.41480060  0.63524284  0.15779262     0.10500
C1948       C  0.40497853  0.66097934  0.14369641    -0.06600
C1949       C  0.37569083  0.67084669  0.15272262    -0.17800
C1950       C  0.36202798  0.66193164  0.18024585     0.10500
S1951       S  0.44111342  0.61073324  0.14016381    -0.32800
S1952       S  0.32720726  0.67913490  0.19249643    -0.32800
H1953       H  0.31663441  0.65662650  0.21170314     0.28600
H1954       H  0.43633984  0.62113721  0.11055598     0.28500
H1955       H  0.41236745  0.60997942  0.19893174     0.19100
H1956       H  0.36495495  0.68793253  0.14031595     0.19100
C1957       C  0.45661573  0.75544050  0.63075618     0.29400
C1958       C  0.50049878  0.71486894  0.63367112     0.29400
C1959       C  0.44509678  0.72377542  0.62839876    -0.06800
C1960       C  0.48020897  0.75676587  0.60398157    -0.07500
C1961       C  0.47848016  0.75767327  0.65800467    -0.07400
C1962       C  0.46723275  0.70344232  0.63047358    -0.06800
C1963       C  0.50346130  0.73535297  0.60552618    -0.07500
C1964       C  0.49995078  0.73619979  0.66021105    -0.07400
C1965       C  0.45227318  0.67689619  0.63146348    -0.32800
N1966       N  0.42107234  0.68024212  0.63127477     0.13700
C1967       C  0.41701820  0.70902498  0.62649654    -0.32800
H1968       H  0.39504520  0.71943820  0.62556802     0.15600
C1969       C  0.51158521  0.72932467  0.57577019    -0.31800
N1970       N  0.49551914  0.74620149  0.55698982     0.12400
C1971       C  0.47574655  0.76221093  0.57342908    -0.31800
C1972       C  0.52557059  0.74828994  0.67433848    -0.32100
N1973       N  0.52216820  0.77696508  0.67854664     0.12900
H1974       H  0.54608450  0.73655156  0.67906655     0.15500
C1975       C  0.49331480  0.78265879  0.66879636    -0.32100
H1976       H  0.48478990  0.80415565  0.66589342     0.15500
H1977       H  0.45793535  0.77522355  0.56380853     0.15500
H1978       H  0.46390400  0.65721250  0.63600811     0.15600
H1979       H  0.52606539  0.71210371  0.56801255     0.15500
C1980       C  0.00305394  0.51906485  0.63522174     0.29400
C1981       C  0.04071949  0.97614633  0.62085121     0.29400
C1982       C  0.00319847  0.99492044  0.65831963    -0.06800
C1983       C  0.99785353  0.50583289  0.60312772    -0.07500
C1984       C  0.03719905  0.52758784  0.63307436    -0.07400
C1985       C  0.02198643  0.97195497  0.65081050    -0.06800
C1986       C  0.01506126  0.98255188  0.59821668    -0.07500
C1987       C  0.05756406  0.50583801  0.62606386    -0.07400
C1988       C  0.00604602  0.94756324  0.66223479    -0.32800
N1989       N  0.97888020  0.95499092  0.67512478     0.13700
C1990       C  0.97781252  0.98391255  0.67406473    -0.32800
H1991       H  0.95823094  0.99625966  0.68131474     0.15600
C1992       C  0.01538041  0.97959660  0.56729377    -0.31800
N1993       N  0.00111894  0.50103386  0.55274762     0.12400
C1994       C  0.98893357  0.51716923  0.57540755    -0.31800
C1995       C  0.08676467  0.51802046  0.63148142    -0.32100
N1996       N  0.08410904  0.54540666  0.64188973     0.14500
H1997       H  0.10855324  0.50743028  0.63123129     0.15500
C1998       C  0.05391007  0.55187433  0.64108098    -0.32100
H1999       H  0.04438747  0.57149522  0.65007864     0.15500
H2000       H  0.97634804  0.53667448  0.57180788     0.15500
H2001       H  0.01217704  0.92543822  0.65913119     0.15600
H2002       H  0.03011688  0.96574759  0.55406509     0.15500
C2003       C  0.47765425  0.74080200  0.94369479     0.29400
C2004       C  0.52633673  0.77966038  0.95291872     0.29400
C2005       C  0.47160491  0.77280363  0.93743169    -0.06800
C2006       C  0.49379675  0.74111809  0.47544405    -0.07500
C2007       C  0.50782421  0.73536012  0.92642635    -0.07400
C2008       C  0.49616307  0.79238344  0.94023426    -0.06800
C2009       C  0.51994575  0.75966581  0.48063568    -0.07500
C2010       C  0.53234096  0.75460289  0.93054050    -0.07400
C2011       C  0.48564085  0.81829833  0.92865343    -0.32800
N2012       N  0.45552210  0.81483965  0.92034133     0.13700
C2013       C  0.44662741  0.78743509  0.92716984    -0.32800
H2014       H  0.42409802  0.77795463  0.92226358     0.15600
C2015       C  0.52311185  0.76255740  0.51149965    -0.31800
N2016       N  0.49990952  0.74741666  0.52533525     0.12400
C2017       C  0.48103847  0.73555442  0.50408214    -0.31800
C2018       C  0.55682517  0.74360578  0.91389007    -0.32100
N2019       N  0.54761721  0.71864642  0.90031691     0.12900
H2020       H  0.58006596  0.75229247  0.91195951     0.15500
C2021       C  0.51771117  0.71331384  0.90802952    -0.32100
H2022       H  0.50417633  0.69458712  0.90092467     0.15500
H2023       H  0.45878910  0.72529917  0.50905236     0.15500
H2024       H  0.49914766  0.83791094  0.92528111     0.15600
H2025       H  0.53933011  0.77678449  0.52307374     0.15500
C2026       C  0.95511792  0.97971697  0.94952045     0.29400
C2027       C  0.99110780  0.52439619  0.94169930     0.29400
C2028       C  0.93572576  0.50791718  0.94497150    -0.06800
C2029       C  0.98243719  0.99148478  0.47683997    -0.07500
C2030       C  0.97852378  0.97881304  0.92286746    -0.07400
C2031       C  0.95660304  0.53091499  0.94005290    -0.06800
C2032       C  0.00679235  0.51649819  0.47324346    -0.07500
C2033       C  0.99995250  0.00132205  0.92200822    -0.07400
C2034       C  0.94016543  0.55455303  0.93175369    -0.32800
N2035       N  0.91012954  0.54634328  0.92881202     0.13700
C2036       C  0.90692187  0.51859579  0.93831713    -0.32800
H2037       H  0.88508799  0.50707113  0.93784667     0.15600
C2038       C  0.01266794  0.52347011  0.50328097    -0.31800
N2039       N  0.99686120  0.50454717  0.52144861     0.12400
C2040       C  0.97650125  0.98525208  0.50691760    -0.31800
C2041       C  0.02483643  0.99249137  0.90507412    -0.32100
N2042       N  0.01820505  0.96636767  0.89285404     0.12900
H2043       H  0.04703181  0.00374315  0.90328171     0.15500
C2044       C  0.98998602  0.95760025  0.90372530    -0.32100
H2045       H  0.97945836  0.93675074  0.89898784     0.15500
H2046       H  0.95950189  0.96977768  0.51577136     0.15500
H2047       H  0.94997583  0.57523524  0.92463700     0.15600
H2048       H  0.02609029  0.54185936  0.51138326     0.15500
Fe2049     Fe  0.60034314  0.83083572  0.82241239     1.65800
Fe2050     Fe  0.61664427  0.89651338  0.84770546     1.73200
Fe2051     Fe  0.65560483  0.87165943  0.78566207     1.54400
O2052       O  0.66986261  0.82844166  0.78590165    -0.82200
O2053       O  0.63313122  0.93112949  0.82319149    -0.80500
O2054       O  0.63526153  0.80320989  0.81344370    -0.84700
O2055       O  0.58993090  0.83200467  0.77663387    -0.79600
O2056       O  0.68708575  0.88142851  0.81978156    -0.81400
O2057       O  0.57310253  0.90075260  0.82716692    -0.84100
C2058       C  0.60086009  0.84331860  0.75224554     0.96600
C2059       C  0.65941042  0.80467175  0.79709317     1.04100
O2060       O  0.62481072  0.86618432  0.81808245    -1.13100
O2061       O  0.59786389  0.86999588  0.88170037    -0.75500
O2062       O  0.61037989  0.82633896  0.86788661    -0.79000
O2063       O  0.62460648  0.86032524  0.75140405    -0.79700
C2064       C  0.60185036  0.84379982  0.88815665     0.95600
O2065       O  0.56175349  0.85449943  0.83291847    -0.77700
O2066       O  0.66119847  0.88998378  0.86405945    -0.82900
C2067       C  0.64150673  0.93641356  0.79626339     0.98200
C2068       C  0.68594098  0.88451186  0.84878488     1.04100
O2069       O  0.64687924  0.91582874  0.77798746    -0.78500
C2070       C  0.55508391  0.87891484  0.82228376     1.02400
Fe2071     Fe  0.59870049  0.65571869  0.74523012     1.65800
Fe2072     Fe  0.61989556  0.59275717  0.71670956     1.73200
Fe2073     Fe  0.65928090  0.62200536  0.77604738     1.54400
O2074       O  0.67253277  0.66597241  0.77169474    -0.82200
O2075       O  0.64151420  0.56061836  0.73999446    -0.80500
O2076       O  0.63231290  0.68709828  0.75086585    -0.84700
O2077       O  0.59089546  0.65457352  0.79092003    -0.79600
O2078       O  0.68970481  0.61236245  0.74037720    -0.81400
O2079       O  0.57762875  0.58248426  0.73927235    -0.84100
C2080       C  0.60657681  0.64810781  0.81397626     0.96600
C2081       C  0.65881121  0.68840680  0.76266085     1.04100
O2082       O  0.62622101  0.62365574  0.74663155    -1.13100
O2083       O  0.59518415  0.61672690  0.68557767    -0.75500
O2084       O  0.60623097  0.66093217  0.69939882    -0.79000
O2085       O  0.63135354  0.63382022  0.81274971    -0.79700
C2086       C  0.59382387  0.64355605  0.68114343     0.95600
O2087       O  0.56051022  0.62762122  0.74116410    -0.77700
O2088       O  0.66302757  0.60448426  0.69705904    -0.82900
C2089       C  0.64721354  0.55675799  0.76767738     0.98200
C2090       C  0.68835252  0.60970778  0.71139000     1.04100
O2091       O  0.64982940  0.57794572  0.78597067    -0.78500
C2092       C  0.55665137  0.60061060  0.74590745     1.02400
Fe2093     Fe  0.38839836  0.83255753  0.76362097     1.65800
Fe2094     Fe  0.37791638  0.89493995  0.72610789     1.73200
Fe2095     Fe  0.33108889  0.87309576  0.78596307     1.54400
O2096       O  0.32106850  0.82828759  0.79211379    -0.82200
O2097       O  0.37298634  0.92976440  0.75395445    -0.80500
O2098       O  0.34972443  0.80754025  0.75694820    -0.84700
O2099       O  0.38250178  0.83247515  0.81058611    -0.79600
O2100       O  0.30280624  0.87333236  0.74921122    -0.81400
O2101       O  0.42524640  0.89491778  0.73943616    -0.84100
C2102       C  0.37833485  0.85323795  0.82886085     0.96600
C2103       C  0.32817509  0.80620757  0.77646414     1.04100
O2104       O  0.36583773  0.86729936  0.75808679    -1.13100
O2105       O  0.38445435  0.86483336  0.69201128    -0.75500
O2106       O  0.39860398  0.82705536  0.71850048    -0.79000
O2107       O  0.36051427  0.87366054  0.82267717    -0.79700
C2108       C  0.39406293  0.83945888  0.69337276     0.95600
O2109       O  0.42712148  0.85638705  0.77002979    -0.77700
O2110       O  0.33134988  0.89559296  0.71215097    -0.82900
C2111       C  0.35267468  0.93668141  0.77328215     0.98200
C2112       C  0.30598911  0.88417759  0.72266817     1.04100
O2113       O  0.33412029  0.91811008  0.78516968    -0.78500
C2114       C  0.43941217  0.87895325  0.75835676     1.02400
Fe2115     Fe  0.39488879  0.65858344  0.79536126     1.65800
Fe2116     Fe  0.37883656  0.60505056  0.84564810     1.73200
Fe2117     Fe  0.32794622  0.62130238  0.78894962     1.54400
O2118       O  0.32044064  0.66613749  0.78486514    -0.82200
O2119       O  0.36661651  0.56670939  0.82530197    -0.80500
O2120       O  0.36204798  0.68852195  0.80457579    -0.84700
O2121       O  0.38120796  0.65639741  0.75046287    -0.79600
O2122       O  0.30358214  0.62223233  0.82889272    -0.81400
O2123       O  0.42446649  0.60007975  0.82658159    -0.84100
C2124       C  0.36638382  0.63816578  0.73452231     0.96600
C2125       C  0.33442211  0.68876804  0.79510866     1.04100
O2126       O  0.36703552  0.62794441  0.81016936    -1.13100
O2127       O  0.39186907  0.64032223  0.87200001    -0.75500
O2128       O  0.41479100  0.66733229  0.83682169    -0.79000
O2129       O  0.34845233  0.61920190  0.74630637    -0.79700
C2130       C  0.40834495  0.66209579  0.86442041     0.95600
O2131       O  0.42788986  0.62921242  0.78582252    -0.77700
O2132       O  0.33439798  0.60813192  0.86634127    -0.82900
C2133       C  0.34745211  0.55879172  0.80524906     0.98200
C2134       C  0.30818960  0.61607482  0.85649044     1.04100
O2135       O  0.33091353  0.57644630  0.79092646    -0.78500
C2136       C  0.43823617  0.60898832  0.80195974     1.02400
Fe2137     Fe  0.10061813  0.91437746  0.73919192     1.65800
Fe2138     Fe  0.11514487  0.84815949  0.71741812     1.73200
Fe2139     Fe  0.15027841  0.87571364  0.78018442     1.54400
O2140       O  0.16560899  0.91874821  0.78013854    -0.82200
O2141       O  0.13101732  0.81510195  0.74326726    -0.80500
O2142       O  0.13688028  0.94295983  0.74801564    -0.84700
O2143       O  0.08762282  0.91604528  0.78352173    -0.79600
O2144       O  0.18375293  0.86623584  0.74697872    -0.81400
O2145       O  0.07144137  0.84297761  0.73789981    -0.84100
C2146       C  0.09484547  0.90564680  0.80906032     0.96600
C2147       C  0.15797524  0.94216071  0.76768370     1.04100
O2148       O  0.12251393  0.87951218  0.74625634    -1.13100
O2149       O  0.09710324  0.87297815  0.68236170    -0.75500
O2150       O  0.11408271  0.91627396  0.69433710    -0.79000
O2151       O  0.11625550  0.88731892  0.81240174    -0.79700
C2152       C  0.10353795  0.89882217  0.67492819     0.95600
O2153       O  0.06084853  0.88899155  0.73074085    -0.77700
O2154       O  0.16029334  0.85626152  0.70185276    -0.82900
C2155       C  0.13863912  0.81094073  0.77035576     0.98200
C2156       C  0.18423278  0.86270475  0.71786849     1.04100
O2157       O  0.14087172  0.83186374  0.78880309    -0.78500
C2158       C  0.05385861  0.86432827  0.74241195     1.02400
Fe2159     Fe  0.09836556  0.59159703  0.80556397     1.65800
Fe2160     Fe  0.11781142  0.64682846  0.85198661     1.73200
Fe2161     Fe  0.16578177  0.62668880  0.79239400     1.54400
O2162       O  0.17167109  0.58119262  0.79015904    -0.82200
O2163       O  0.13261386  0.68362463  0.82988414    -0.80500
O2164       O  0.13043121  0.56114709  0.81391146    -0.84700
O2165       O  0.11061211  0.59106020  0.76079953    -0.79600
O2166       O  0.19147031  0.62749298  0.83105498    -0.81400
O2167       O  0.07292253  0.65438409  0.83397155    -0.84100
C2168       C  0.12705331  0.60533619  0.74196444     0.96600
C2169       C  0.15673485  0.55906420  0.80094043     1.04100
O2170       O  0.12749825  0.62199567  0.81686779    -1.13100
O2171       O  0.10027313  0.61481533  0.88127328    -0.75500
O2172       O  0.07963275  0.58524201  0.84763625    -0.79000
O2173       O  0.14475463  0.62588225  0.75027226    -0.79700
C2174       C  0.08192049  0.59424315  0.87453458     0.95600
O2175       O  0.06625362  0.62168879  0.79670062    -0.77700
O2176       O  0.16214575  0.64061721  0.87086889    -0.82900
C2177       C  0.14967405  0.69074501  0.80746134     0.98200
C2178       C  0.18788750  0.63272519  0.85914119     1.04100
O2179       O  0.16360931  0.67204638  0.79141785    -0.78500
C2180       C  0.05809535  0.64414429  0.81093157     1.02400
Fe2181     Fe  0.89140191  0.91452812  0.81252226     1.65800
Fe2182     Fe  0.87823588  0.84860644  0.84287027     1.73200
Fe2183     Fe  0.83776440  0.87178576  0.78086264     1.54400
O2184       O  0.82783924  0.91566743  0.77604971    -0.82200
O2185       O  0.86853469  0.81326707  0.81644714    -0.80500
O2186       O  0.85168741  0.93705440  0.81417068    -0.84700
O2187       O  0.89423754  0.91566025  0.76545340    -0.79600
O2188       O  0.80599925  0.86771010  0.81594770    -0.81400
O2189       O  0.92505806  0.84762368  0.82746775    -0.84100
C2190       C  0.88923582  0.89794735  0.74388839     0.96600
C2191       C  0.83330124  0.93777864  0.79230389     1.04100
O2192       O  0.86942053  0.87771343  0.81204884    -1.13100
O2193       O  0.89025916  0.87598808  0.87804135    -0.75500
O2194       O  0.89213299  0.91986754  0.85879040    -0.79000
O2195       O  0.87031896  0.87651468  0.74622849    -0.79700
C2196       C  0.89338698  0.90290242  0.88107496     0.95600
O2197       O  0.93206385  0.89328035  0.81140064    -0.77700
O2198       O  0.83143299  0.85123280  0.85712139    -0.82900
C2199       C  0.85326728  0.80759460  0.79290811     0.98200
C2200       C  0.80705735  0.86032207  0.84394978     1.04100
O2201       O  0.84085637  0.82717341  0.77759872    -0.78500
C2202       C  0.94212160  0.86813750  0.81592584     1.02400
Fe2203     Fe  0.89839764  0.59143541  0.77339408     1.65800
Fe2204     Fe  0.88110470  0.64219627  0.72257210     1.73200
Fe2205     Fe  0.82887940  0.62096062  0.77868168     1.54400
O2206       O  0.82428130  0.57544566  0.78045905    -0.82200
O2207       O  0.86557782  0.67905633  0.74292885    -0.80500
O2208       O  0.86893015  0.55817340  0.76251060    -0.84700
O2209       O  0.88135374  0.59040475  0.81660335    -0.79600
O2210       O  0.80633242  0.61896000  0.73854161    -0.81400
O2211       O  0.92541716  0.65175422  0.74249200    -0.84100
C2212       C  0.86298995  0.60412871  0.83322842     0.96600
C2213       C  0.84076813  0.55471778  0.77068435     1.04100
O2214       O  0.86915526  0.61851176  0.75802181    -1.13100
O2215       O  0.89869747  0.60840610  0.69674689    -0.75500
O2216       O  0.92217583  0.58583012  0.73347174    -0.79000
O2217       O  0.84561335  0.62287884  0.82250931    -0.79700
C2218       C  0.91854963  0.59077452  0.70554906     0.95600
O2219       O  0.92745100  0.62472873  0.78477057    -0.77700
O2220       O  0.83775534  0.63464340  0.70094457    -0.82900
C2221       C  0.84644893  0.68537435  0.76380140     0.98200
C2222       C  0.81145181  0.62497821  0.71090901     1.04100
O2223       O  0.83042568  0.66622308  0.77833009    -0.78500
C2224       C  0.93798589  0.64504707  0.76793613     1.02400
C2225       C  0.84911880  0.77666058  0.78429450    -0.06700
C2226       C  0.84474642  0.75622073  0.80773062    -0.17800
C2227       C  0.84235262  0.72650366  0.80172386     0.10500
C2228       C  0.84401587  0.71659614  0.77142881    -0.06600
C2229       C  0.84776651  0.73711500  0.74789119    -0.17800
C2230       C  0.85044978  0.76689934  0.75394670     0.10500
S2231       S  0.83925779  0.70167189  0.83327551    -0.32800
S2232       S  0.85806678  0.79189193  0.72303514    -0.32800
H2233       H  0.85828845  0.77137372  0.69952273     0.28600
H2234       H  0.85139220  0.72076530  0.85521109     0.28500
H2235       H  0.84345849  0.76359043  0.83105200     0.19100
H2236       H  0.84952664  0.72963615  0.72465289     0.19100
C2237       C  0.82838136  0.52472427  0.77156603    -0.06700
C2238       C  0.81471614  0.51492727  0.79893474    -0.17800
C2239       C  0.81144492  0.98600121  0.80454724     0.10500
C2240       C  0.82294620  0.96638751  0.78300069    -0.06600
C2241       C  0.83501809  0.97697372  0.75537274    -0.17800
C2242       C  0.83706290  0.50417238  0.74944307     0.10500
S2243       S  0.79459106  0.97420054  0.84012042    -0.32800
S2244       S  0.85441824  0.51351860  0.71304295    -0.32800
H2245       H  0.84675609  0.54264798  0.71294848     0.28600
H2246       H  0.78471025  0.94716183  0.82888064     0.28500
H2247       H  0.80753822  0.53035903  0.81588017     0.19100
H2248       H  0.84406273  0.96203381  0.73877563     0.19100
C2249       C  0.02913632  0.65713416  0.79985466    -0.06700
C2250       C  0.00438315  0.66118919  0.82010037    -0.17800
C2251       C  0.97391455  0.66246212  0.80944431     0.10500
C2252       C  0.96778710  0.65860658  0.77803874    -0.06600
C2253       C  0.99288506  0.65912390  0.75763137    -0.17800
C2254       C  0.02344230  0.65866604  0.76822471     0.10500
S2255       S  0.94342265  0.66680856  0.83719424    -0.32800
S2256       S  0.05509157  0.65767352  0.74114703    -0.32800
H2257       H  0.03748640  0.66218791  0.71499160     0.28600
H2258       H  0.92147193  0.67655080  0.81647848     0.28500
H2259       H  0.00836280  0.66089569  0.84436315     0.19100
H2260       H  0.98854985  0.65674078  0.73357108     0.19100
C2261       C  0.02617269  0.86222556  0.76337764    -0.06700
C2262       C  0.01860857  0.88751882  0.77894988    -0.17800
C2263       C  0.99443391  0.88834028  0.80006787     0.10500
C2264       C  0.97454015  0.86385878  0.80459641    -0.06600
C2265       C  0.98303953  0.83773127  0.79081557    -0.17800
C2266       C  0.00860188  0.83667162  0.77033051     0.10500
S2267       S  0.98967115  0.92217769  0.81966453    -0.32800
S2268       S  0.01517162  0.80305427  0.75125979    -0.32800
H2269       H  0.02110909  0.81582764  0.72268040     0.28600
H2270       H  0.97719306  0.90945802  0.84634802     0.28500
H2271       H  0.03180134  0.90729985  0.77487373     0.19100
H2272       H  0.96813882  0.81874073  0.79366916     0.19100
C2273       C  0.14482751  0.78057139  0.78011528    -0.06700
C2274       C  0.14247836  0.77299217  0.81095964    -0.17800
C2275       C  0.14646763  0.74446200  0.82075276     0.10500
C2276       C  0.15156870  0.72212310  0.79923449    -0.06600
C2277       C  0.15534773  0.72991552  0.76864209    -0.17800
C2278       C  0.15286176  0.75860100  0.75904206     0.10500
S2279       S  0.14588524  0.73841520  0.86121852    -0.32800
S2280       S  0.16195281  0.76561114  0.71969116    -0.32800
H2281       H  0.17915543  0.79077651  0.72669195     0.28600
H2282       H  0.16874022  0.71750281  0.86015493     0.28500
H2283       H  0.13749946  0.78940444  0.82769131     0.19100
H2284       H  0.15997738  0.71344924  0.75185637     0.19100
C2285       C  0.17117724  0.97013320  0.77897835    -0.06700
C2286       C  0.18019720  0.99188818  0.75820217    -0.17800
C2287       C  0.18113886  0.51937884  0.76894604     0.10500
C2288       C  0.16784012  0.52903718  0.79660371    -0.06600
C2289       C  0.15738507  0.50814538  0.81777542    -0.17800
C2290       C  0.16870571  0.97735503  0.81015165     0.10500
S2291       S  0.20108833  0.54426783  0.74337224    -0.32800
S2292       S  0.15895592  0.95024383  0.83851625    -0.32800
H2293       H  0.15359891  0.96914296  0.86287993     0.28600
H2294       H  0.20768813  0.52412525  0.72047817     0.28500
H2295       H  0.18278964  0.98627619  0.73444815     0.19100
H2296       H  0.14819849  0.51492230  0.83958384     0.19100
C2297       C  0.21609740  0.62870254  0.87745266    -0.06700
C2298       C  0.22713799  0.60045456  0.87890839    -0.17800
C2299       C  0.25902702  0.59522959  0.87862283     0.10500
C2300       C  0.28052689  0.61862451  0.87651203    -0.06600
C2301       C  0.26947823  0.64661436  0.88058292    -0.17800
C2302       C  0.23761803  0.65185998  0.88100204     0.10500
S2303       S  0.27089516  0.55840137  0.87542299    -0.32800
S2304       S  0.22600609  0.68880908  0.88056200    -0.32800
H2305       H  0.19645101  0.68284475  0.89307173     0.28600
H2306       H  0.30103608  0.56372177  0.88604250     0.28500
H2307       H  0.21102103  0.58234974  0.87620562     0.19100
H2308       H  0.28561681  0.66484103  0.87924267     0.19100
C2309       C  0.27796070  0.88272528  0.70415076    -0.06700
C2310       C  0.26719610  0.85500981  0.69589600    -0.17800
C2311       C  0.23544918  0.84829508  0.69482844     0.10500
C2312       C  0.21421197  0.86962742  0.70282515    -0.06600
C2313       C  0.22504084  0.89831765  0.70569282    -0.17800
C2314       C  0.25672070  0.90511809  0.70606585     0.10500
S2315       S  0.22391126  0.81171677  0.68628189    -0.32800
S2316       S  0.26853953  0.94182129  0.71412718    -0.32800
H2317       H  0.29833204  0.93977798  0.70134319     0.28600
H2318       H  0.19417955  0.81835704  0.67639904     0.28500
H2319       H  0.28347716  0.83776032  0.69369877     0.19100
H2320       H  0.20884128  0.91506434  0.71106796     0.19100
C2321       C  0.31961123  0.71725134  0.79403236    -0.06700
C2322       C  0.31016332  0.72752002  0.76576152    -0.17800
C2323       C  0.30830072  0.75718225  0.76014610     0.10500
C2324       C  0.31514446  0.77710246  0.78359136    -0.06600
C2325       C  0.31937377  0.76657879  0.81311763    -0.17800
C2326       C  0.32188408  0.73691068  0.81853133     0.10500
S2327       S  0.30036950  0.76849372  0.72186081    -0.32800
S2328       S  0.33045320  0.72567542  0.85668541    -0.32800
H2329       H  0.32141697  0.69660495  0.85280225     0.28600
H2330       H  0.29028051  0.79603363  0.73001716     0.28500
H2331       H  0.30719973  0.71265943  0.74714808     0.19100
H2332       H  0.32430949  0.78157888  0.83141920     0.19100
C2333       C  0.35132702  0.96777174  0.78161128    -0.06700
C2334       C  0.37884970  0.98446690  0.77892749    -0.17800
C2335       C  0.35006242  0.51669914  0.76899827     0.10500
C2336       C  0.34508905  0.52752020  0.79853353    -0.06600
C2337       C  0.34204531  0.50794826  0.82292023    -0.17800
C2338       C  0.32363185  0.98170452  0.78973865     0.10500
S2339       S  0.35554961  0.53996219  0.73649151    -0.32800
S2340       S  0.28721645  0.96186386  0.79325997    -0.32800
H2341       H  0.26984359  0.98455707  0.80511183     0.28600
H2342       H  0.32648898  0.55249187  0.74000249     0.28500
H2343       H  0.40026833  0.97430474  0.77267317     0.19100
H2344       H  0.33863991  0.51607358  0.84577612     0.19100
C2345       C  0.52676732  0.59161644  0.76096802    -0.06700
C2346       C  0.52428360  0.59545291  0.79269228    -0.17800
C2347       C  0.49534953  0.59769207  0.80758122     0.10500
C2348       C  0.46787400  0.59661270  0.79054953    -0.06600
C2349       C  0.47034842  0.59057016  0.75919802    -0.17800
C2350       C  0.49918806  0.58798592  0.74438865     0.10500
S2351       S  0.49506309  0.60625362  0.84744174    -0.32800
S2352       S  0.49922981  0.58288741  0.70378013    -0.32800
H2353       H  0.52907289  0.57178588  0.70162245     0.28600
H2354       H  0.47153480  0.58580449  0.85471550     0.28500
H2355       H  0.54515857  0.59903107  0.80567676     0.19100
H2356       H  0.44959308  0.58983856  0.74563249     0.19100
C2357       C  0.71838634  0.61379797  0.69492091    -0.06700
C2358       C  0.73728629  0.59000354  0.69106678    -0.17800
C2359       C  0.76961638  0.59364348  0.68880021     0.10500
C2360       C  0.78368496  0.62145836  0.69156496    -0.06600
C2361       C  0.76447553  0.64531339  0.69031198    -0.17800
C2362       C  0.73203272  0.64171925  0.69220284     0.10500
S2363       S  0.79213064  0.56172475  0.68667753    -0.32800
S2364       S  0.70828390  0.67289316  0.69529455    -0.32800
H2365       H  0.73210559  0.69374241  0.69058721     0.28600
H2366       H  0.81956366  0.57623644  0.67713172     0.28500
H2367       H  0.72717922  0.56841425  0.69278512     0.19100
H2368       H  0.77485719  0.66672275  0.69243749     0.19100
C2369       C  0.52630310  0.88066909  0.80368971    -0.06700
C2370       C  0.51175261  0.90719099  0.79889807    -0.17800
C2371       C  0.48435539  0.90874750  0.78169920     0.10500
C2372       C  0.47221209  0.88366319  0.76739571    -0.06600
C2373       C  0.48844145  0.85809207  0.77006627    -0.17800
C2374       C  0.51351911  0.85564331  0.78923919     0.10500
S2375       S  0.46470981  0.94241001  0.78093073    -0.32800
S2376       S  0.52603216  0.81922693  0.79598023    -0.32800
H2377       H  0.51648922  0.80747346  0.76803271     0.28600
H2378       H  0.45583915  0.93988248  0.75042712     0.28500
H2379       H  0.52091980  0.92653202  0.80967883     0.19100
H2380       H  0.47921053  0.83870424  0.75935253     0.19100
C2381       C  0.71507768  0.87851170  0.86437680    -0.06700
C2382       C  0.72376875  0.84957874  0.86409450    -0.17800
C2383       C  0.75489275  0.84214668  0.86199899     0.10500
C2384       C  0.77798559  0.86416712  0.86125114    -0.06600
C2385       C  0.76936999  0.89277341  0.86682622    -0.17800
C2386       C  0.73809120  0.90016797  0.86820698     0.10500
S2387       S  0.76329176  0.80483077  0.85516040    -0.32800
S2388       S  0.72876985  0.93770240  0.87087272    -0.32800
H2389       H  0.69816511  0.93297678  0.88117580     0.28600
H2390       H  0.79406126  0.80667360  0.86497668     0.28500
H2391       H  0.70608981  0.83290571  0.86148316     0.19100
H2392       H  0.78699934  0.90981501  0.86668393     0.19100
C2393       C  0.67270453  0.77659832  0.78799501    -0.06700
C2394       C  0.67142724  0.76943848  0.75703569    -0.17800
C2395       C  0.66995601  0.74046168  0.74743809     0.10500
C2396       C  0.67162370  0.71792483  0.76903134    -0.06600
C2397       C  0.67712419  0.72524899  0.79947547    -0.17800
C2398       C  0.67701642  0.75409925  0.80923823     0.10500
S2399       S  0.66280244  0.73251021  0.70795646    -0.32800
S2400       S  0.67954329  0.76046641  0.84949593    -0.32800
H2401       H  0.68842931  0.78957190  0.84668888     0.28600
H2402       H  0.66564857  0.76103611  0.69717470     0.28500
H2403       H  0.66778034  0.78643554  0.74069292     0.19100
H2404       H  0.67807653  0.70827973  0.81637514     0.19100
C2405       C  0.64416956  0.96796835  0.78730300    -0.06700
C2406       C  0.63259804  0.98875304  0.80786207    -0.17800
C2407       C  0.67024554  0.50672368  0.76460428     0.10500
C2408       C  0.64930004  0.52617068  0.77806279    -0.06600
C2409       C  0.62572804  0.51479966  0.79702078    -0.17800
C2410       C  0.65748816  0.97838526  0.75970528     0.10500
S2411       S  0.70135714  0.51879007  0.73960597    -0.32800
S2412       S  0.67442677  0.95514590  0.73173481    -0.32800
H2413       H  0.69304268  0.94128548  0.75296638     0.28600
H2414       H  0.70439111  0.54680539  0.75159703     0.28500
H2415       H  0.62198205  0.98181539  0.82915722     0.19100
H2416       H  0.60856972  0.52911173  0.80621161     0.19100
C2417       C  0.01290888  0.54817983  0.92851129    -0.06700
C2418       C  0.04174501  0.55504085  0.94190463    -0.17800
C2419       C  0.06521004  0.57077050  0.92581048     0.10500
C2420       C  0.05902721  0.58164895  0.89656143    -0.06600
C2421       C  0.02952570  0.57718453  0.88469250    -0.17800
C2422       C  0.00772486  0.55888409  0.89851547     0.10500
S2423       S  0.10291180  0.57389345  0.94257505    -0.32800
S2424       S  0.97700653  0.54545294  0.87390214    -0.32800
H2425       H  0.97970174  0.56652113  0.85093387     0.28600
H2426       H  0.11971609  0.57245512  0.91509691     0.28500
H2427       H  0.04745202  0.54564774  0.96349411     0.19100
H2428       H  0.02473205  0.58564616  0.86233204     0.19100
C2429       C  0.07869725  0.91912035  0.83495550    -0.06700
C2430       C  0.07766654  0.94933835  0.83344132    -0.17800
C2431       C  0.05699267  0.96480069  0.85090737     0.10500
C2432       C  0.03875804  0.95046253  0.87340434    -0.06600
C2433       C  0.04094893  0.92023368  0.87639306    -0.17800
C2434       C  0.05978908  0.90429039  0.85652704     0.10500
S2435       S  0.05243162  0.00204198  0.84027961    -0.32800
S2436       S  0.05672867  0.86549212  0.85819416    -0.32800
H2437       H  0.06177551  0.86070247  0.82701311     0.28600
H2438       H  0.02008713  0.00131219  0.84426462     0.28500
H2439       H  0.09132193  0.96094832  0.81630056     0.19100
H2440       H  0.02680679  0.90887414  0.89325179     0.19100
C2441       C  0.90104039  0.91522822  0.91103144    -0.06700
C2442       C  0.92804781  0.90645076  0.92528367    -0.17800
C2443       C  0.94343901  0.92496469  0.94567547     0.10500
C2444       C  0.93254686  0.95328356  0.94974295    -0.06600
C2445       C  0.90106301  0.95705365  0.94391051    -0.17800
C2446       C  0.88579294  0.93935828  0.92278484     0.10500
S2447       S  0.97918997  0.91325542  0.96141037    -0.32800
S2448       S  0.84820919  0.94972176  0.91006115    -0.32800
H2449       H  0.83916595  0.92242860  0.89882024     0.28600
H2450       H  0.97259149  0.92408281  0.99045223     0.28500
H2451       H  0.93893501  0.88675887  0.91817348     0.19100
H2452       H  0.88909713  0.97494748  0.95366088     0.19100
C2453       C  0.86038806  0.59396301  0.86478147    -0.06700
C2454       C  0.85494088  0.56416534  0.86692600    -0.17800
C2455       C  0.87135206  0.54764528  0.88729208     0.10500
C2456       C  0.88855854  0.56171151  0.91050384    -0.06600
C2457       C  0.88876319  0.59208930  0.91181049    -0.17800
C2458       C  0.87566319  0.60833852  0.88861849     0.10500
S2459       S  0.87511573  0.50981471  0.87819479    -0.32800
S2460       S  0.88192344  0.64680620  0.88875607    -0.32800
H2461       H  0.85577180  0.65240450  0.87137919     0.28600
H2462       H  0.86751110  0.51162644  0.84726084     0.28500
H2463       H  0.84293828  0.55336158  0.84856103     0.19100
H2464       H  0.90174299  0.60315306  0.92939424     0.19100
C2465       C  0.55400728  0.80087471  0.95793397    -0.06700
C2466       C  0.58389920  0.79128080  0.95158502    -0.17800
C2467       C  0.60277693  0.80638332  0.93042121     0.10500
C2468       C  0.59253070  0.83282592  0.91873675    -0.06600
C2469       C  0.56879762  0.84659802  0.93482148    -0.17800
C2470       C  0.55050328  0.83094090  0.95593202     0.10500
S2471       S  0.63791495  0.78999909  0.91762479    -0.32800
S2472       S  0.52446518  0.84998143  0.98060372    -0.32800
H2473       H  0.51379453  0.82549467  0.99678637     0.28600
H2474       H  0.65275885  0.81599354  0.90837692     0.28500
H2475       H  0.59017619  0.76987766  0.95867778     0.19100
H2476       H  0.56302992  0.86861395  0.92957344     0.19100
C2477       C  0.45286310  0.72049954  0.92908018    -0.06700
C2478       C  0.44455772  0.72870447  0.89928580    -0.17800
C2479       C  0.42743908  0.71139875  0.87982154     0.10500
C2480       C  0.42092772  0.68246127  0.88774083    -0.06600
C2481       C  0.42931040  0.67300756  0.91699319    -0.17800
C2482       C  0.44566491  0.69141896  0.93738267     0.10500
S2483       S  0.41568352  0.72727610  0.84420701    -0.32800
S2484       S  0.45997199  0.67525772  0.97133698    -0.32800
H2485       H  0.49059225  0.68525982  0.96637085     0.28600
H2486       H  0.41971782  0.75636651  0.85279500     0.28500
H2487       H  0.45397813  0.74833785  0.88928637     0.19100
H2488       H  0.42501170  0.65063672  0.92321829     0.19100
C2489       C  0.43668799  0.83341188  0.90215037    -0.06700
C2490       C  0.40431377  0.83190254  0.90662053    -0.17800
C2491       C  0.38401296  0.84115772  0.88427670     0.10500
C2492       C  0.39614592  0.85317588  0.85714105    -0.06600
C2493       C  0.42814029  0.85825444  0.85430527    -0.17800
C2494       C  0.44852538  0.84823623  0.87612759     0.10500
S2495       S  0.34323011  0.83386751  0.89005105    -0.32800
S2496       S  0.48899835  0.85171427  0.86686631    -0.32800
H2497       H  0.49335571  0.82175956  0.86745962     0.28600
H2498       H  0.33341143  0.85693579  0.87220195     0.28500
H2499       H  0.39474739  0.82118430  0.92664481     0.19100
H2500       H  0.43756159  0.86746674  0.83338124     0.19100
C2501       C  0.56632943  0.70043049  0.88153802    -0.06700
C2502       C  0.56404203  0.67019750  0.88514961    -0.17800
C2503       C  0.57952399  0.65161908  0.86529505     0.10500
C2504       C  0.59799441  0.66358894  0.84170318    -0.06600
C2505       C  0.60191956  0.69364416  0.83947849    -0.17800
C2506       C  0.58566955  0.71219083  0.85834443     0.10500
S2507       S  0.57353906  0.61327852  0.87018882    -0.32800
S2508       S  0.58651365  0.75031872  0.84945848    -0.32800
H2509       H  0.60647955  0.74928349  0.82404148     0.28600
H2510       H  0.59963814  0.60491779  0.85346198     0.28500
H2511       H  0.54937099  0.66104674  0.90301874     0.19100
H2512       H  0.61559655  0.70259699  0.82077116     0.19100
C2513       C  0.12766027  0.59348800  0.71088927    -0.06700
C2514       C  0.13119300  0.56358256  0.70970629    -0.17800
C2515       C  0.11981237  0.54696143  0.68581567     0.10500
C2516       C  0.10551758  0.56092489  0.66120912    -0.06600
C2517       C  0.10605771  0.59137429  0.66041628    -0.17800
C2518       C  0.11689400  0.60783972  0.68507234     0.10500
S2519       S  0.11918656  0.50810992  0.69060936    -0.32800
S2520       S  0.11302159  0.64633895  0.68364989    -0.32800
H2521       H  0.13885134  0.65272959  0.70169514     0.28600
H2522       H  0.13322858  0.50693397  0.71913201     0.28500
H2523       H  0.13916254  0.55275480  0.72977114     0.19100
H2524       H  0.09535096  0.60223117  0.64161860     0.19100
C2525       C  0.09478776  0.91024505  0.64491035    -0.06700
C2526       C  0.06600469  0.90187155  0.63275030    -0.17800
C2527       C  0.04970575  0.92162524  0.61511546     0.10500
C2528       C  0.06141176  0.95032937  0.61315098    -0.06600
C2529       C  0.09368542  0.95354624  0.61430438    -0.17800
C2530       C  0.11043017  0.93450581  0.63200197     0.10500
S2531       S  0.01296373  0.91135114  0.59870537    -0.32800
S2532       S  0.15052842  0.94320889  0.63924677    -0.32800
H2533       H  0.15812118  0.91526884  0.64857552     0.28600
H2534       H  0.01251830  0.88258938  0.60892877     0.28500
H2535       H  0.05485970  0.88172526  0.63977812     0.19100
H2536       H  0.10537491  0.97174367  0.60357516     0.19100
C2537       C  0.93991615  0.57589674  0.68411445    -0.06700
C2538       C  0.96902757  0.56971000  0.69558240    -0.17800
C2539       C  0.98942100  0.55191119  0.68033224     0.10500
C2540       C  0.98252416  0.54186566  0.65035666    -0.06600
C2541       C  0.95384170  0.54934641  0.63802172    -0.17800
C2542       C  0.93221248  0.56541159  0.65488815     0.10500
S2543       S  0.02144690  0.53907645  0.70257763    -0.32800
S2544       S  0.89433086  0.56925120  0.63919596    -0.32800
H2545       H  0.87843025  0.56406063  0.66680877     0.28600
H2546       H  0.02312630  0.56221996  0.72320010     0.28500
H2547       H  0.97509709  0.57723907  0.71807886     0.19100
H2548       H  0.94688614  0.54057439  0.61636305     0.19100
C2549       C  0.95391583  0.93553102  0.68464680    -0.06700
C2550       C  0.96075911  0.90952666  0.69914189    -0.17800
C2551       C  0.93742108  0.89287518  0.71356431     0.10500
C2552       C  0.90733401  0.90347673  0.71595332    -0.06600
C2553       C  0.89967877  0.92732710  0.69837672    -0.17800
C2554       C  0.92232670  0.94247554  0.68135497     0.10500
S2555       S  0.94745448  0.85915018  0.73027977    -0.32800
S2556       S  0.90911483  0.96952078  0.65542939    -0.32800
H2557       H  0.93358129  0.96632951  0.63440895     0.28600
H2558       H  0.91737526  0.84690791  0.73027036     0.28500
H2559       H  0.98445385  0.90273024  0.70039218     0.19100
H2560       H  0.87624953  0.93500776  0.69906293     0.19100
C2561       C  0.52371119  0.69154559  0.64052254    -0.06700
C2562       C  0.55310073  0.69172211  0.62622126    -0.17800
C2563       C  0.57672994  0.67429048  0.63698264     0.10500
C2564       C  0.57024850  0.65474595  0.66091646    -0.06600
C2565       C  0.54038569  0.65257160  0.67300832    -0.17800
C2566       C  0.51824998  0.67239237  0.66553810     0.10500
S2567       S  0.61494760  0.67909525  0.62070115    -0.32800
S2568       S  0.48656449  0.67623852  0.69268622    -0.32800
H2569       H  0.48843285  0.64910949  0.70674597     0.28600
H2570       H  0.62639987  0.65283517  0.63114305     0.28500
H2571       H  0.55888090  0.70737812  0.60873254     0.19100
H2572       H  0.53587572  0.63826033  0.69200484     0.19100
C2573       C  0.43098036  0.77694819  0.63651682    -0.06700
C2574       C  0.43523499  0.80587099  0.62681670    -0.17800
C2575       C  0.42077027  0.82846434  0.64259841     0.10500
C2576       C  0.39884887  0.82167265  0.66580318    -0.06600
C2577       C  0.38918447  0.79302024  0.66951818    -0.17800
C2578       C  0.40850960  0.77131386  0.66015232     0.10500
S2579       S  0.43409768  0.86488480  0.63515302    -0.32800
S2580       S  0.40933546  0.74047728  0.68572863    -0.32800
H2581       H  0.39401023  0.75264091  0.71083370     0.28600
H2582       H  0.40499660  0.87694625  0.63995880     0.28500
H2583       H  0.45324526  0.81129094  0.61031637     0.19100
H2584       H  0.37144911  0.78799737  0.68650367     0.19100
C2585       C  0.54519178  0.79792806  0.68966689    -0.06700
C2586       C  0.53572196  0.82487814  0.70093882    -0.17800
C2587       C  0.55631631  0.84346820  0.71638627     0.10500
C2588       C  0.58572938  0.83385871  0.72395982    -0.06600
C2589       C  0.59654370  0.80902306  0.70982039    -0.17800
C2590       C  0.57737606  0.79220996  0.69098061     0.10500
S2591       S  0.54471590  0.87959681  0.72489515    -0.32800
S2592       S  0.59651189  0.76616565  0.66749303    -0.32800
H2593       H  0.57616418  0.76891564  0.64300509     0.28600
H2594       H  0.57440149  0.89071459  0.73165312     0.28500
H2595       H  0.51215753  0.83152237  0.69834015     0.19100
H2596       H  0.61994839  0.80238623  0.71391228     0.19100
C2597       C  0.37047299  0.64021691  0.70129884    -0.06700
C2598       C  0.39400968  0.62481255  0.68718412    -0.17800
C2599       C  0.40680792  0.63410761  0.65925576     0.10500
C2600       C  0.39864182  0.66133097  0.64723731    -0.06600
C2601       C  0.37088399  0.67294326  0.65834450    -0.17800
C2602       C  0.35664066  0.66240183  0.68494700     0.10500
S2603       S  0.43142285  0.60947574  0.63947182    -0.32800
S2604       S  0.32213990  0.67948090  0.69804881    -0.32800
H2605       H  0.31151432  0.65653393  0.71667320     0.28600
H2606       H  0.42789895  0.62257387  0.61088597     0.28500
H2607       H  0.40324721  0.60618091  0.69844539     0.19100
H2608       H  0.36125816  0.69172438  0.64796771     0.19100
loop_ 
_geom_bond_atom_site_label_1 
_geom_bond_atom_site_label_2 
_geom_bond_distance 
_geom_bond_site_symmetry_2 
_ccdc_geom_bond_type 
C1            C3   1.542       .  S
C1            C5   1.538       .  S
C1            C4   1.558       .  S
C1          C617   1.537       .  S
C2            C6   1.527       .  S
C2            C8   1.528       .  S
C2            C7   1.560       .  S
C2          C605   1.524       .  S
C3           C11   1.379       .  A
C3            C6   1.368       .  A
C4           C15   1.391       .  A
C4            C7   1.440       .  A
C5           C19   1.396       .  A
C5            C8   1.377       .  A
C6            C9   1.374       .  A
C7           C13   1.383       .  A
C8           C16   1.384       .  A
C9           N10   1.363       .  A
C9           H22   1.074       .  S
N10          C11   1.369       .  A
N10         C644   1.462       .  S
C11          H12   1.080       .  S
C13          N14   1.349       .  A
C13          H23   1.082       .  S
N14          C15   1.354       .  A
N14          N60   1.408       .  S
C15          H21   1.082       .  S
C16          N17   1.354       .  A
C16          H18   1.077       .  S
N17          C19   1.357       .  A
N17         C629   1.462       .  S
C19          H20   1.079       .  S
C24          C28   1.526       .  S
C24          C27   1.558   1_455  S
C24         C584   1.544   1_455  S
C24        C1330   1.532   1_545  S
C25          C29   1.551       .  S
C25          C30   1.536       .  S
C25         C572   1.551       .  S
C25        C1335   1.565       .  S
C26        C1328   1.526       .  S
C26          C34   1.372   1_455  A
C26          C29   1.388       .  A
C27          C38   1.389       .  A
C27        C1334   1.415   1_645  A
C28          C42   1.374       .  A
C28          C31   1.391       .  A
C29          C32   1.396       .  A
C30          C36   1.368       .  A
C30        C1331   1.416       .  A
C31        C1329   1.564   1_545  S
C31          C39   1.392       .  A
C32          N33   1.355   1_455  A
C32          H45   1.075       .  S
N33          C34   1.346       .  A
N33         C593   1.444       .  S
C34          H35   1.080       .  S
C36        N1341   1.349   1_455  A
C36          H46   1.082       .  S
N37          C38   1.361   1_565  A
N37        C1340   1.350   1_655  A
N37          N83   1.403       .  S
C38          H44   1.081       .  S
C39          N40   1.355       .  A
C39          H41   1.077       .  S
N40          C42   1.347       .  A
N40         C560   1.439       .  S
C42          H43   1.083       .  S
C47          C49   1.535       .  S
C47          C51   1.529       .  S
C47         C521   1.549       .  S
C47         C702   1.553       .  S
C48          C52   1.559       .  S
C48          C54   1.546       .  S
C48         C509   1.548       .  S
C48         C705   1.544       .  S
C49          C57   1.370       .  A
C49          C52   1.385       .  A
C50         C699   1.557       .  S
C50          C61   1.395   1_556  A
C50          C53   1.428       .  A
C51          C65   1.379       .  A
C51          C54   1.380       .  A
C52          C55   1.396       .  A
C53         C700   1.546       .  S
C53          C59   1.374   1_556  A
C54          C62   1.388       .  A
C55          N56   1.365       .  A
C55          H68   1.077       .  S
N56          C57   1.349       .  A
N56         C533   1.449       .  S
C57          H58   1.083       .  S
C59          N60   1.347       .  A
C59          H69   1.082       .  S
N60          C61   1.359       .  A
C61          H67   1.082       .  S
C62          N63   1.355       .  A
C62          H64   1.075       .  S
N63          C65   1.349       .  A
N63         C545   1.439       .  S
C65          H66   1.083       .  S
C70          C74   1.534       .  S
C70         C488   1.541       .  S
C70        C1376   1.554       .  S
C70         C725   1.553       .  S
C71          C75   1.536   1_455  S
C71         C461   1.541       .  S
C71        C1381   1.532       .  S
C71         C728   1.539       .  S
C72        C1374   1.556   1_545  S
C72          C80   1.387       .  A
C72          C75   1.385       .  A
C73         C722   1.548       .  S
C73          C84   1.375   1_556  A
C73        C1380   1.419       .  A
C74          C88   1.388       .  A
C74          C77   1.381   1_655  A
C75          C78   1.371       .  A
C76         C723   1.536       .  S
C76          C82   1.380   1_656  A
C76        C1377   1.429   1_545  A
C77        C1375   1.533       .  S
C77          C85   1.380       .  A
C78          N79   1.360       .  A
C78          H91   1.079       .  S
N79          C80   1.364       .  A
N79         C500   1.455       .  S
C80          H81   1.076       .  S
C82          N83   1.350   1_445  A
C82          H92   1.082       .  S
N83        C1388   1.352       .  A
C84        N1387   1.353       .  A
C84          H90   1.082       .  S
C85          N86   1.352       .  A
C85          H87   1.082       .  S
N86          C88   1.353   1_455  A
N86         C476   1.443       .  S
C88          H89   1.079       .  S
Fe93        O109   2.074       .  S
Fe93         O99   2.071       .  S
Fe93        O106   2.066       .  S
Fe93         O98   2.045       .  S
Fe93        O104   1.938       .  S
Fe94         O97   2.051       .  S
Fe94        O101   2.107       .  S
Fe94        O105   2.084       .  S
Fe94        O110   2.094       .  S
Fe94        O104   1.954       .  S
Fe95        O113   2.126       .  S
Fe95        O100   2.088       .  S
Fe95        O107   2.094       .  S
Fe95         O96   2.111       .  S
Fe95        O104   1.952       .  S
O96         C103   1.276       .  A
O97         C111   1.259       .  A
O98         C103   1.262       .  A
O99         C102   1.273       .  A
O100        C112   1.285       .  A
O101        C114   1.281       .  A
C102        O107   1.279       .  A
C102        C632   1.479       .  S
C103        C437   1.490       .  S
O105        C108   1.265       .  A
O106        C108   1.263       .  A
C108        C512   1.489       .  S
O109        C114   1.269       .  A
O110        C112   1.288       .  A
C111        O113   1.275       .  A
C111        C449   1.522       .  S
C112        C425   1.478       .  S
C114        C413   1.501       .  S
Fe115       O131   2.082       .  S
Fe115       O121   2.035       .  S
Fe115       O128   2.058       .  S
Fe115       O120   2.049       .  S
Fe115       O126   1.929       .  S
Fe116       O119   2.049       .  S
Fe116       O123   2.106       .  S
Fe116       O127   2.072       .  S
Fe116       O132   2.091       .  S
Fe116       O126   1.954       .  S
Fe117       O135   2.121       .  S
Fe117       O122   2.091       .  S
Fe117       O129   2.089       .  S
Fe117       O118   2.107       .  S
Fe117       O126   1.945       .  S
O118        C125   1.277       .  A
O119        C133   1.260       .  A
O120        C125   1.266       .  A
O121        C124   1.267       .  A
O122        C134   1.282       .  A
O123        C136   1.283       .  A
C124        O129   1.276       .  A
C124        C548   1.464       .  S
C125        C440   1.487       .  S
O127        C130   1.262       .  A
O128        C130   1.257       .  A
C130        C608   1.464       .  S
O131        C136   1.274       .  A
O132        C134   1.284       .  A
C133        O135   1.276       .  A
C133        C452   1.504       .  S
C134        C401   1.481       .  S
C136        C389   1.489       .  S
Fe137       O153   2.002       .  S
Fe137       O143   2.076       .  S
Fe137       O150   2.058       .  S
Fe137       O142   2.033       .  S
Fe137       O148   1.927       .  S
Fe138       O141   2.059       .  S
Fe138       O145   2.147       .  S
Fe138       O149   2.081       .  S
Fe138       O154   2.119       .  S
Fe138       O148   1.954       .  S
Fe139       O157   2.090       .  S
Fe139       O144   2.039       .  S
Fe139       O151   2.075       .  S
Fe139       O140   2.135       .  S
Fe139       O148   1.947       .  S
O140        C147   1.281       .  A
O141        C155   1.266       .  A
O142        C147   1.262       .  A
O143        C146   1.267       .  A
O144        C156   1.275       .  A
O145        C158   1.290       .  A
C146        O151   1.267       .  A
C146        C536   1.473       .  S
C147        C368   1.480       .  S
O149        C152   1.262       .  A
O150        C152   1.265       .  A
C152        C620   1.491       .  S
O153        C158   1.266       .  A
O154        C156   1.287       .  A
C155        O157   1.271       .  A
C155        C377   1.492       .  S
C156        C353   1.473       .  S
C158        C416   1.487       .  S
Fe159       O175   2.037       .  S
Fe159       O165   2.071       .  S
Fe159       O172   2.059       .  S
Fe159       O164   2.047       .  S
Fe159       O170   1.948       .  S
Fe160       O163   2.048       .  S
Fe160       O167   2.145       .  S
Fe160       O171   2.068       .  S
Fe160       O176   2.116       .  S
Fe160       O170   1.971       .  S
Fe161       O179   2.086       .  S
Fe161       O166   2.042       .  S
Fe161       O173   2.061       .  S
Fe161       O162   2.117       .  S
Fe161       O170   1.963       .  S
O162        C169   1.281       .  A
O163        C177   1.265       .  A
O164        C169   1.270       .  A
O165        C168   1.265       .  A
O166        C178   1.267       .  A
O167        C180   1.289       .  A
C168        O173   1.261       .  A
C168        C641   1.470       .  S
C169        C365   1.482       .  S
O171        C174   1.261       .  A
O172        C174   1.264       .  A
C174        C524   1.490       .  S
O175        C180   1.270       .  A
O176        C178   1.280       .  A
C177        O179   1.273       .  A
C177        C380   1.475       .  S
C178        C344   1.481       .  S
C180        C392   1.496       .  S
Fe181       O197   2.099       .  S
Fe181       O187   2.018       .  S
Fe181       O194   2.055       .  S
Fe181       O186   2.079       .  S
Fe181       O192   1.921       .  S
Fe182       O185   2.048       .  S
Fe182       O189   2.100       .  S
Fe182       O193   2.101       .  S
Fe182       O198   2.077       .  S
Fe182       O192   1.949       .  S
Fe183       O201   2.117       .  S
Fe183       O188   2.098       .  S
Fe183       O195   2.110       .  S
Fe183       O184   2.092       .  S
Fe183       O192   1.935       .  S
O184        C191   1.273       .  A
O185        C199   1.255       .  A
O186        C191   1.272       .  A
O187        C190   1.265       .  A
O188        C200   1.288       .  A
O189        C202   1.279       .  A
C190        O195   1.282       .  A
C190        C473   1.472       .  S
C191        C329   1.495       .  S
O193        C196   1.266       .  A
O194        C196   1.261       .  A
C196        C569   1.485       .  S
O197        C202   1.282       .  A
O198        C200   1.286       .  A
C199        O201   1.274       .  A
C199        C317   1.511       .  S
C200        C356   1.472       .  S
C202        C305   1.513       .  S
Fe203       O219   2.083       .  S
Fe203       O209   2.040       .  S
Fe203       O216   2.057       .  S
Fe203       O208   2.049       .  S
Fe203       O214   1.935       .  S
Fe204       O207   2.056       .  S
Fe204       O211   2.126       .  S
Fe204       O215   2.072       .  S
Fe204       O220   2.117       .  S
Fe204       O214   1.964       .  S
Fe205       O223   2.104       .  S
Fe205       O210   2.066       .  S
Fe205       O217   2.069       .  S
Fe205       O206   2.120       .  S
Fe205       O214   1.965       .  S
O206        C213   1.279       .  A
O207        C221   1.259       .  A
O208        C213   1.268       .  A
O209        C212   1.266       .  A
O210        C222   1.278       .  A
O211        C224   1.291       .  A
C212        O217   1.268       .  A
C212        C557   1.481       .  S
C213        C332   1.496       .  S
O215        C218   1.259       .  A
O216        C218   1.257       .  A
C218        C464   1.477       .  S
O219        C224   1.282       .  A
O220        C222   1.290       .  A
C221        O223   1.271       .  A
C221        C320   1.500       .  S
C222        C341   1.482       .  S
C224        C293   1.503       .  S
Fe225       O241   2.054       .  S
Fe225       O231   2.054       .  S
Fe225       O238   2.055       .  S
Fe225       O230   2.041       .  S
Fe225       O236   1.928       .  S
Fe226       O229   2.057       .  S
Fe226       O233   2.148       .  S
Fe226       O237   2.100       .  S
Fe226       O242   2.103       .  S
Fe226       O236   1.948       .  S
Fe227       O245   2.086       .  S
Fe227       O232   2.073       .  S
Fe227       O239   2.088       .  S
Fe227       O228   2.086       .  S
Fe227       O236   1.944       .  S
O228        C235   1.268       .  A
O229        C243   1.262       .  A
O230        C235   1.262       .  A
O231        C234   1.275       .  A
O232        C244   1.279       .  A
O233        C246   1.281       .  A
C234        O239   1.278       .  A
C234        C596   1.465       .  S
C235        C284   1.471       .  S
O237        C240   1.273       .  A
O238        C240   1.268       .  A
C240        C485   1.476       .  S
O241        C246   1.257       .  A
O242        C244   1.286       .  A
C243        O245   1.270       .  A
C243        C269   1.486       .  S
C244        C428   1.477       .  S
C246        C308   1.518       .  S
Fe247       O263   2.045       .  S
Fe247       O253   2.056       .  S
Fe247       O260   2.058       .  S
Fe247       O252   2.034       .  S
Fe247       O258   1.937       .  S
Fe248       O251   2.040       .  S
Fe248       O255   2.149       .  S
Fe248       O259   2.069       .  S
Fe248       O264   2.125       .  S
Fe248       O258   1.964       .  S
Fe249       O267   2.113       .  S
Fe249       O254   2.028       .  S
Fe249       O261   2.065       .  S
Fe249       O250   2.119       .  S
Fe249       O258   1.955       .  S
O250        C257   1.285       .  A
O251        C265   1.267       .  A
O252        C257   1.270       .  A
O253        C256   1.262       .  A
O254        C266   1.262       .  A
O255        C268   1.290       .  A
C256        O261   1.262       .  A
C256        C497   1.467       .  S
C257        C281   1.481       .  S
O259        C262   1.260       .  A
O260        C262   1.267       .  A
C262        C581   1.492       .  S
O263        C268   1.269       .  A
O264        C266   1.280       .  A
C265        O267   1.280       .  A
C265        C272   1.505       .  S
C266        C404   1.483       .  S
C268        C296   1.488       .  S
C269        C270   1.408       .  A
C269        C274   1.405       .  A
C270        C271   1.409       .  A
C270        H279   1.083       .  S
C271        C272   1.417       .  A
C271        S275   1.806       .  S
C272        C273   1.417       .  A
C273        C274   1.404       .  A
C273        H280   1.082       .  S
C274        S276   1.808       .  S
S275        H278   1.408       .  S
S276        H277   1.407       .  S
C281        C282   1.405       .  A
C281        C286   1.421       .  A
C282       C1587   1.402   1_545  A
C282        H291   1.084       .  S
C283        C284   1.410       .  A
C283       C1586   1.402       .  A
C283        S287   1.796       .  S
C284        C285   1.399       .  A
C285       C1590   1.396       .  A
C285        H292   1.084       .  S
C286       C1589   1.398   1_545  A
C286        S288   1.810       .  S
S287        H290   1.404       .  S
S288        H289   1.399       .  S
C293        C294   1.406       .  A
C293        C298   1.421       .  A
C294        C295   1.415   1_455  A
C294        H303   1.083       .  S
C295        C296   1.417       .  A
C295        S299   1.799       .  S
C296        C297   1.395   1_655  A
C297        C298   1.403       .  A
C297        H304   1.084   1_455  S
C298        S300   1.797       .  S
S299        H302   1.407       .  S
S300        H301   1.407       .  S
C305        C306   1.402       .  A
C305        C310   1.425       .  A
C306        C307   1.394   1_455  A
C306        H315   1.082       .  S
C307        C308   1.428       .  A
C307        S311   1.807       .  S
C308        C309   1.414       .  A
C309        C310   1.425   1_655  A
C309        H316   1.083       .  S
C310        S312   1.799       .  S
S311        H314   1.408       .  S
S312        H313   1.407       .  S
C317        C318   1.406       .  A
C317        C322   1.431       .  A
C318        C319   1.410       .  A
C318        H327   1.083       .  S
C319        C320   1.420       .  A
C319        S323   1.799       .  S
C320        C321   1.398       .  A
C321        C322   1.409       .  A
C321        H328   1.083       .  S
C322        S324   1.812       .  S
S323        H326   1.405       .  S
S324        H325   1.407       .  S
C329        C330   1.406       .  A
C329        C334   1.415       .  A
C330       C1635   1.416       .  A
C330        H339   1.083       .  S
C331        C332   1.418       .  A
C331       C1634   1.412       .  A
C331        S335   1.807       .  S
C332        C333   1.405       .  A
C333       C1638   1.403   1_545  A
C333        H340   1.084       .  S
C334       C1637   1.402       .  A
C334        S336   1.800       .  S
S335        H338   1.407       .  S
S336        H337   1.406       .  S
C341        C342   1.408       .  A
C341        C346   1.411       .  A
C342        C343   1.405       .  A
C342        H351   1.085       .  S
C343        C344   1.411       .  A
C343        S347   1.803       .  S
C344        C345   1.406       .  A
C345        C346   1.406       .  A
C345        H352   1.082       .  S
C346        S348   1.799       .  S
S347        H350   1.406       .  S
S348        H349   1.406       .  S
C353        C354   1.405       .  A
C353        C358   1.410       .  A
C354        C355   1.401       .  A
C354        H363   1.082       .  S
C355        C356   1.409       .  A
C355        S359   1.804       .  S
C356        C357   1.405       .  A
C357        C358   1.402       .  A
C357        H364   1.085       .  S
C358        S360   1.802       .  S
S359        H362   1.405       .  S
S360        H361   1.405       .  S
C365        C366   1.401       .  A
C365        C370   1.416       .  A
C366        C367   1.402       .  A
C366        H375   1.080       .  S
C367        C368   1.414       .  A
C367        S371   1.800       .  S
C368        C369   1.402       .  A
C369        C370   1.403       .  A
C369        H376   1.084       .  S
C370        S372   1.804       .  S
S371        H374   1.405       .  S
S372        H373   1.403       .  S
C377        C378   1.409       .  A
C377        C382   1.415       .  A
C378       C1683   1.404       .  A
C378        H387   1.084       .  S
C379        C380   1.410       .  A
C379       C1682   1.400   1_545  A
C379        S383   1.805       .  S
C380        C381   1.404       .  A
C381       C1686   1.403   1_545  A
C381        H388   1.084       .  S
C382       C1685   1.405       .  A
C382        S384   1.802       .  S
S383        H386   1.407       .  S
S384        H385   1.407       .  S
C389        C390   1.410       .  A
C389        C394   1.412       .  A
C390        C391   1.410       .  A
C390        H399   1.084       .  S
C391        C392   1.413       .  A
C391        S395   1.799       .  S
C392        C393   1.410       .  A
C393        C394   1.406       .  A
C393        H400   1.084       .  S
C394        S396   1.803       .  S
S395        H398   1.405       .  S
S396        H397   1.405       .  S
C401        C402   1.398       .  A
C401        C406   1.412       .  A
C402        C403   1.401       .  A
C402        H411   1.084       .  S
C403        C404   1.416       .  A
C403        S407   1.795       .  S
C404        C405   1.403       .  A
C405        C406   1.410       .  A
C405        H412   1.083       .  S
C406        S408   1.800       .  S
S407        H410   1.408       .  S
S408        H409   1.407       .  S
C413        C414   1.413       .  A
C413        C418   1.424       .  A
C414        C415   1.417       .  A
C414        H423   1.083       .  S
C415        C416   1.417       .  A
C415        S419   1.802       .  S
C416        C417   1.402       .  A
C417        C418   1.390       .  A
C417        H424   1.084       .  S
C418        S420   1.814       .  S
S419        H422   1.400       .  S
S420        H421   1.407       .  S
C425        C426   1.403       .  A
C425        C430   1.409       .  A
C426        C427   1.401       .  A
C426        H435   1.079       .  S
C427        C428   1.409       .  A
C427        S431   1.803       .  S
C428        C429   1.408       .  A
C429        C430   1.407       .  A
C429        H436   1.082       .  S
C430        S432   1.802       .  S
S431        H434   1.406       .  S
S432        H433   1.405       .  S
C437        C438   1.404       .  A
C437        C442   1.418       .  A
C438        C439   1.408       .  A
C438        H447   1.083       .  S
C439        C440   1.414       .  A
C439        S443   1.805       .  S
C440        C441   1.403       .  A
C441        C442   1.405       .  A
C441        H448   1.084       .  S
C442        S444   1.801       .  S
S443        H446   1.407       .  S
S444        H445   1.397       .  S
C449        C450   1.419       .  A
C449        C454   1.418       .  A
C450       C1755   1.411       .  A
C450        H459   1.083       .  S
C451        C452   1.414       .  A
C451       C1754   1.412   1_545  A
C451        S455   1.801       .  S
C452        C453   1.415       .  A
C453       C1758   1.405   1_545  A
C453        H460   1.084       .  S
C454       C1757   1.415       .  A
C454        S456   1.800       .  S
S455        H458   1.407       .  S
S456        H457   1.407       .  S
C461        C462   1.413       .  A
C461        C466   1.435       .  A
C462        C463   1.415       .  A
C462        H471   1.081       .  S
C463        C464   1.412       .  A
C463        S467   1.801       .  S
C464        C465   1.390       .  A
C465        C466   1.391       .  A
C465        H472   1.085       .  S
C466        S468   1.816   1_455  S
S467        H470   1.406       .  S
S468        H469   1.408       .  S
C473        C474   1.406       .  A
C473        C478   1.410       .  A
C474        C475   1.389       .  A
C474        H483   1.086       .  S
C475        C476   1.410       .  A
C475        S479   1.805       .  S
C476        C477   1.413       .  A
C477        C478   1.408       .  A
C477        H484   1.082       .  S
C478        S480   1.804       .  S
S479        H482   1.407       .  S
S480        H481   1.403       .  S
C485        C486   1.403       .  A
C485        C490   1.408       .  A
C486        C487   1.405       .  A
C486        H495   1.083       .  S
C487        C488   1.420       .  A
C487        S491   1.809       .  S
C488        C489   1.405       .  A
C489        C490   1.399       .  A
C489        H496   1.075       .  S
C490        S492   1.802       .  S
S491        H494   1.407       .  S
S492        H493   1.407       .  S
C497        C498   1.402       .  A
C497        C502   1.402       .  A
C498        C499   1.407       .  A
C498        H507   1.083       .  S
C499        C500   1.420       .  A
C499        S503   1.807       .  S
C500        C501   1.409       .  A
C501        C502   1.391       .  A
C501        H508   1.078       .  S
C502        S504   1.794       .  S
S503        H506   1.407       .  S
S504        H505   1.406       .  S
C509        C510   1.406       .  A
C509        C514   1.409       .  A
C510        C511   1.406       .  A
C510        H519   1.083       .  S
C511        C512   1.415       .  A
C511        S515   1.802       .  S
C512        C513   1.408       .  A
C513        C514   1.402       .  A
C513        H520   1.083       .  S
C514        S516   1.803       .  S
S515        H518   1.408       .  S
S516        H517   1.404       .  S
C521        C522   1.417       .  A
C521        C526   1.420       .  A
C522        C523   1.381       .  A
C522        H531   1.079       .  S
C523        C524   1.406       .  A
C523        S527   1.816       .  S
C524        C525   1.414       .  A
C525        C526   1.418       .  A
C525        H532   1.083       .  S
C526        S528   1.794       .  S
S527        H530   1.408       .  S
S528        H529   1.406       .  S
C533        C534   1.412       .  A
C533        C538   1.417       .  A
C534        C535   1.402       .  A
C534        H543   1.083       .  S
C535        C536   1.407       .  A
C535        S539   1.803       .  S
C536        C537   1.402       .  A
C537        C538   1.400       .  A
C537        H544   1.084       .  S
C538        S540   1.794       .  S
S539        H542   1.405       .  S
S540        H541   1.408       .  S
C545        C546   1.411       .  A
C545        C550   1.410       .  A
C546        C547   1.404       .  A
C546        H555   1.083       .  S
C547        C548   1.406       .  A
C547        S551   1.802       .  S
C548        C549   1.403       .  A
C549        C550   1.394       .  A
C549        H556   1.084       .  S
C550        S552   1.809       .  S
S551        H554   1.405       .  S
S552        H553   1.406       .  S
C557        C558   1.404       .  A
C557        C562   1.410       .  A
C558        C559   1.389       .  A
C558        H567   1.083       .  S
C559        C560   1.416       .  A
C559        S563   1.813       .  S
C560        C561   1.408       .  A
C561        C562   1.405       .  A
C561        H568   1.083       .  S
C562        S564   1.798       .  S
S563        H566   1.407       .  S
S564        H565   1.406       .  S
C569        C570   1.408       .  A
C569        C574   1.414       .  A
C570        C571   1.412       .  A
C570        H579   1.083       .  S
C571        C572   1.412       .  A
C571        S575   1.805       .  S
C572        C573   1.400       .  A
C573        C574   1.401       .  A
C573        H580   1.078       .  S
C574        S576   1.803       .  S
S575        H578   1.407       .  S
S576        H577   1.407       .  S
C581        C582   1.395       .  A
C581        C586   1.418       .  A
C582        C583   1.384       .  A
C582        H591   1.083       .  S
C583        C584   1.435       .  A
C583        S587   1.820   1_655  S
C584        C585   1.411       .  A
C585        C586   1.415       .  A
C585        H592   1.078       .  S
C586        S588   1.798       .  S
S587        H590   1.408       .  S
S588        H589   1.407       .  S
C593        C594   1.406       .  A
C593        C598   1.422       .  A
C594        C595   1.397       .  A
C594        H603   1.082       .  S
C595        C596   1.404       .  A
C595        S599   1.794       .  S
C596        C597   1.397       .  A
C597        C598   1.397       .  A
C597        H604   1.084       .  S
C598        S600   1.803       .  S
S599        H602   1.406       .  S
S600        H601   1.408       .  S
C605        C606   1.413       .  A
C605        C610   1.428       .  A
C606        C607   1.407       .  A
C606        H615   1.081       .  S
C607        C608   1.408       .  A
C607        S611   1.802       .  S
C608        C609   1.390       .  A
C609        C610   1.384       .  A
C609        H616   1.078       .  S
C610        S612   1.821       .  S
S611        H614   1.406       .  S
S612        H613   1.407       .  S
C617        C618   1.414       .  A
C617        C622   1.437       .  A
C618        C619   1.416       .  A
C618        H627   1.083       .  S
C619        C620   1.417       .  A
C619        S623   1.800       .  S
C620        C621   1.393       .  A
C621        C622   1.390       .  A
C621        H628   1.085       .  S
C622        S624   1.816       .  S
S623        H626   1.402       .  S
S624        H625   1.408       .  S
C629        C630   1.414       .  A
C629        C634   1.426       .  A
C630        C631   1.405       .  A
C630        H639   1.081       .  S
C631        C632   1.405       .  A
C631        S635   1.800       .  S
C632        C633   1.400       .  A
C633        C634   1.403       .  A
C633        H640   1.084       .  S
C634        S636   1.802       .  S
S635        H638   1.405       .  S
S636        H637   1.408       .  S
C641        C642   1.399       .  A
C641        C646   1.407       .  A
C642        C643   1.403       .  A
C642        H651   1.084       .  S
C643        C644   1.423       .  A
C643        S647   1.801       .  S
C644        C645   1.411       .  A
C645        C646   1.397       .  A
C645        H652   1.080       .  S
C646        S648   1.800       .  S
S647        H650   1.408       .  S
S648        H649   1.405       .  S
C653        C655   1.534       .  S
C653        C657   1.535       .  S
C653        C656   1.551       .  S
C653       C1269   1.532       .  S
C654        C658   1.533       .  S
C654        C660   1.533       .  S
C654        C659   1.554       .  S
C654       C1257   1.525       .  S
C655        C663   1.374       .  A
C655        C658   1.367       .  A
C656        C667   1.387       .  A
C656        C659   1.434       .  A
C657        C671   1.390       .  A
C657        C660   1.386       .  A
C658        C661   1.378       .  A
C659        C665   1.376       .  A
C660        C668   1.386       .  A
C661        N662   1.365       .  A
C661        H674   1.073       .  S
N662        C663   1.367       .  A
N662       C1296   1.462       .  S
C663        H664   1.079       .  S
C665        N666   1.346       .  A
C665        H675   1.082       .  S
N666        C667   1.353       .  A
N666        N712   1.402       .  S
C667        H673   1.082       .  S
C668        N669   1.356       .  A
C668        H670   1.075       .  S
N669        C671   1.356       .  A
N669       C1281   1.462       .  S
C671        H672   1.080       .  S
C676       C1982   1.532   1_545  S
C676        C680   1.524       .  S
C676        C679   1.553   1_455  S
C676       C1236   1.544   1_455  S
C677        C681   1.552       .  S
C677       C1987   1.567       .  S
C677        C682   1.535       .  S
C677       C1224   1.552       .  S
C678       C1980   1.528       .  S
C678        C686   1.373   1_455  A
C678        C681   1.393       .  A
C679        C690   1.390       .  A
C679       C1986   1.424   1_645  A
C680        C694   1.371       .  A
C680        C683   1.392       .  A
C681        C684   1.398       .  A
C682       C1983   1.423   1_455  A
C682        C688   1.368       .  A
C683       C1981   1.566   1_545  S
C683        C691   1.392       .  A
C684        N685   1.354   1_455  A
C684        H697   1.076       .  S
N685        C686   1.346       .  A
N685       C1245   1.445       .  S
C686        H687   1.080       .  S
C688       N1993   1.345       .  A
C688        H698   1.082       .  S
N689       C1992   1.343   1_655  A
N689        C690   1.354   1_565  A
N689        N735   1.399   1_565  S
C690        H696   1.081       .  S
C691        N692   1.357       .  A
C691        H693   1.076       .  S
N692        C694   1.348       .  A
N692       C1212   1.440       .  S
C694        H695   1.083       .  S
C699        C701   1.544       .  S
C699        C703   1.533       .  S
C699       C1173   1.551       .  S
C700        C704   1.554       .  S
C700        C706   1.537       .  S
C700       C1161   1.544       .  S
C701        C709   1.376       .  A
C701        C704   1.392       .  A
C702        C713   1.388       .  A
C702        C705   1.424       .  A
C703        C717   1.382       .  A
C703        C706   1.376       .  A
C704        C707   1.391       .  A
C705        C711   1.370       .  A
C706        C714   1.385       .  A
C707        N708   1.360       .  A
C707        H720   1.079       .  S
N708        C709   1.349       .  A
N708       C1185   1.444       .  S
C709        H710   1.083       .  S
C711        N712   1.349       .  A
C711        H721   1.082       .  S
N712        C713   1.358       .  A
C713        H719   1.081       .  S
C714        N715   1.353       .  A
C714        H716   1.075       .  S
N715        C717   1.351       .  A
N715       C1197   1.438       .  S
C717        H718   1.083       .  S
C722       C2028   1.559       .  S
C722        C726   1.551       .  S
C722       C1140   1.549       .  S
C723        C727   1.533       .  S
C723       C2033   1.525       .  S
C723       C1113   1.537   1_655  S
C724       C2026   1.559   1_545  S
C724        C732   1.389       .  A
C724        C727   1.382       .  A
C725        C736   1.376       .  A
C725       C2032   1.425   1_655  A
C726        C740   1.395       .  A
C726        C729   1.378       .  A
C727        C730   1.369       .  A
C728       C2029   1.427   1_445  A
C728        C734   1.384       .  A
C729       C2027   1.520       .  S
C729        C737   1.371   1_655  A
C730        N731   1.360       .  A
C730        H743   1.079       .  S
N731        C732   1.366       .  A
N731       C1152   1.458       .  S
C732        H733   1.074       .  S
C734        N735   1.351   1_455  A
C734        H744   1.082       .  S
N735       C2040   1.346   1_545  A
C736       N2039   1.348       .  A
C736        H742   1.082       .  S
C737        N738   1.350       .  A
C737        H739   1.082       .  S
N738        C740   1.355   1_455  A
N738       C1128   1.439       .  S
C740        H741   1.076       .  S
Fe745       O761   2.077       .  S
Fe745       O751   2.066       .  S
Fe745       O758   2.067       .  S
Fe745       O750   2.047       .  S
Fe745       O756   1.937       .  S
Fe746       O749   2.045       .  S
Fe746       O753   2.103       .  S
Fe746       O757   2.075       .  S
Fe746       O762   2.093       .  S
Fe746       O756   1.952       .  S
Fe747       O765   2.116       .  S
Fe747       O752   2.084       .  S
Fe747       O759   2.086       .  S
Fe747       O748   2.100       .  S
Fe747       O756   1.956       .  S
O748        C755   1.273       .  A
O749        C763   1.256       .  A
O750        C755   1.262       .  A
O751        C754   1.274       .  A
O752        C764   1.286       .  A
O753        C766   1.281       .  A
C754        O759   1.278       .  A
C754       C1284   1.471       .  S
C755       C1089   1.488       .  S
O757        C760   1.263       .  A
O758        C760   1.263       .  A
C760       C1164   1.488       .  S
O761        C766   1.271       .  A
O762        C764   1.288       .  A
C763        O765   1.271       .  A
C763       C1101   1.506       .  S
C764       C1077   1.476       .  S
C766       C1065   1.503       .  S
Fe767       O783   2.102       .  S
Fe767       O773   2.027       .  S
Fe767       O780   2.051       .  S
Fe767       O772   2.047       .  S
Fe767       O778   1.928       .  S
Fe768       O771   2.046       .  S
Fe768       O775   2.105       .  S
Fe768       O779   2.070       .  S
Fe768       O784   2.095       .  S
Fe768       O778   1.955       .  S
Fe769       O787   2.119       .  S
Fe769       O774   2.092       .  S
Fe769       O781   2.089       .  S
Fe769       O770   2.106       .  S
Fe769       O778   1.938       .  S
O770        C777   1.278       .  A
O771        C785   1.257       .  A
O772        C777   1.266       .  A
O773        C776   1.267       .  A
O774        C786   1.285       .  A
O775        C788   1.287       .  A
C776        O781   1.277       .  A
C776       C1200   1.470       .  S
C777       C1092   1.491       .  S
O779        C782   1.259       .  A
O780        C782   1.250       .  A
C782       C1260   1.467       .  S
O783        C788   1.282       .  A
O784        C786   1.289       .  A
C785        O787   1.274       .  A
C785       C1104   1.504       .  S
C786       C1053   1.479       .  S
C788       C1041   1.498       .  S
Fe789       O805   2.001       .  S
Fe789       O795   2.071       .  S
Fe789       O802   2.046       .  S
Fe789       O794   2.029       .  S
Fe789       O800   1.920       .  S
Fe790       O793   2.054       .  S
Fe790       O797   2.153       .  S
Fe790       O801   2.078       .  S
Fe790       O806   2.117       .  S
Fe790       O800   1.951       .  S
Fe791       O809   2.087       .  S
Fe791       O796   2.040       .  S
Fe791       O803   2.080       .  S
Fe791       O792   2.137       .  S
Fe791       O800   1.947       .  S
O792        C799   1.282       .  A
O793        C807   1.267       .  A
O794        C799   1.262       .  A
O795        C798   1.266       .  A
O796        C808   1.274       .  A
O797        C810   1.290       .  A
C798        O803   1.268       .  A
C798       C1188   1.475       .  S
C799       C1020   1.480       .  S
O801        C804   1.262       .  A
O802        C804   1.264       .  A
C804       C1272   1.484       .  S
O805        C810   1.265       .  A
O806        C808   1.285       .  A
C807        O809   1.271       .  A
C807       C1029   1.485       .  S
C808       C1005   1.472       .  S
C810       C1068   1.485       .  S
Fe811       O827   2.039       .  S
Fe811       O817   2.071       .  S
Fe811       O824   2.063       .  S
Fe811       O816   2.045       .  S
Fe811       O822   1.952       .  S
Fe812       O815   2.044       .  S
Fe812       O819   2.150       .  S
Fe812       O823   2.071       .  S
Fe812       O828   2.132       .  S
Fe812       O822   1.971       .  S
Fe813       O831   2.092       .  S
Fe813       O818   2.039       .  S
Fe813       O825   2.065       .  S
Fe813       O814   2.116       .  S
Fe813       O822   1.972       .  S
O814        C821   1.279       .  A
O815        C829   1.264       .  A
O816        C821   1.267       .  A
O817        C820   1.267       .  A
O818        C830   1.267       .  A
O819        C832   1.290       .  A
C820        O825   1.264       .  A
C820       C1293   1.470       .  S
C821       C1017   1.482       .  S
O823        C826   1.262       .  A
O824        C826   1.266       .  A
C826       C1176   1.492       .  S
O827        C832   1.267       .  A
O828        C830   1.284       .  A
C829        O831   1.272       .  A
C829       C1032   1.478       .  S
C830        C996   1.487       .  S
C832       C1044   1.496       .  S
Fe833       O849   2.091       .  S
Fe833       O839   2.017       .  S
Fe833       O846   2.050       .  S
Fe833       O838   2.071       .  S
Fe833       O844   1.920       .  S
Fe834       O837   2.044       .  S
Fe834       O841   2.101       .  S
Fe834       O845   2.105       .  S
Fe834       O850   2.086       .  S
Fe834       O844   1.948       .  S
Fe835       O853   2.109       .  S
Fe835       O840   2.095       .  S
Fe835       O847   2.115       .  S
Fe835       O836   2.087       .  S
Fe835       O844   1.935       .  S
O836        C843   1.270       .  A
O837        C851   1.255       .  A
O838        C843   1.268       .  A
O839        C842   1.268       .  A
O840        C852   1.290       .  A
O841        C854   1.280       .  A
C842        O847   1.285       .  A
C842       C1125   1.481       .  S
C843        C981   1.490       .  S
O845        C848   1.266       .  A
O846        C848   1.258       .  A
C848       C1221   1.482       .  S
O849        C854   1.279       .  A
O850        C852   1.290       .  A
C851        O853   1.271       .  A
C851        C969   1.512       .  S
C852       C1008   1.474       .  S
C854        C957   1.512       .  S
Fe855       O871   2.044       .  S
Fe855       O861   2.035       .  S
Fe855       O868   2.038       .  S
Fe855       O860   2.046       .  S
Fe855       O866   1.937       .  S
Fe856       O859   2.040       .  S
Fe856       O863   2.138       .  S
Fe856       O867   2.076       .  S
Fe856       O872   2.127       .  S
Fe856       O866   1.967       .  S
Fe857       O875   2.113       .  S
Fe857       O862   2.048       .  S
Fe857       O869   2.076       .  S
Fe857       O858   2.130       .  S
Fe857       O866   1.971       .  S
O858        C865   1.282       .  A
O859        C873   1.258       .  A
O860        C865   1.271       .  A
O861        C864   1.263       .  A
O862        C874   1.272       .  A
O863        C876   1.291       .  A
C864        O869   1.266       .  A
C864       C1209   1.482       .  S
C865        C984   1.497       .  S
O867        C870   1.260       .  A
O868        C870   1.258       .  A
C870       C1116   1.478       .  S
O871        C876   1.274       .  A
O872        C874   1.288       .  A
C873        O875   1.276       .  A
C873        C972   1.505       .  S
C874        C993   1.485       .  S
C876        C945   1.495       .  S
Fe877       O893   2.068       .  S
Fe877       O883   2.067       .  S
Fe877       O890   2.073       .  S
Fe877       O882   2.043       .  S
Fe877       O888   1.934       .  S
Fe878       O881   2.036       .  S
Fe878       O885   2.126       .  S
Fe878       O889   2.083       .  S
Fe878       O894   2.102       .  S
Fe878       O888   1.950       .  S
Fe879       O897   2.086       .  S
Fe879       O884   2.071       .  S
Fe879       O891   2.080       .  S
Fe879       O880   2.081       .  S
Fe879       O888   1.956       .  S
O880        C887   1.267       .  A
O881        C895   1.258       .  A
O882        C887   1.262       .  A
O883        C886   1.277       .  A
O884        C896   1.281       .  A
O885        C898   1.279       .  A
C886        O891   1.277       .  A
C886       C1248   1.466       .  S
C887        C936   1.470       .  S
O889        C892   1.267       .  A
O890        C892   1.269       .  A
C892       C1137   1.482       .  S
O893        C898   1.263       .  A
O894        C896   1.287       .  A
C895        O897   1.267       .  A
C895        C921   1.494       .  S
C896       C1080   1.475       .  S
C898        C960   1.514       .  S
Fe899       O915   2.043       .  S
Fe899       O905   2.052       .  S
Fe899       O912   2.059       .  S
Fe899       O904   2.038       .  S
Fe899       O910   1.942       .  S
Fe900       O903   2.052       .  S
Fe900       O907   2.133       .  S
Fe900       O911   2.075       .  S
Fe900       O916   2.113       .  S
Fe900       O910   1.970       .  S
Fe901       O919   2.094       .  S
Fe901       O906   2.032       .  S
Fe901       O913   2.068       .  S
Fe901       O902   2.106       .  S
Fe901       O910   1.960       .  S
O902        C909   1.282       .  A
O903        C917   1.269       .  A
O904        C909   1.271       .  A
O905        C908   1.261       .  A
O906        C918   1.263       .  A
O907        C920   1.286       .  A
C908        O913   1.262       .  A
C908       C1149   1.468       .  S
C909        C933   1.475       .  S
O911        C914   1.263       .  A
O912        C914   1.267       .  A
C914       C1233   1.491       .  S
O915        C920   1.269       .  A
O916        C918   1.277       .  A
C917        O919   1.277       .  A
C917        C924   1.487       .  S
C918       C1056   1.479       .  S
C920        C948   1.480       .  S
C921        C922   1.411       .  A
C921        C926   1.415       .  A
C922        C923   1.398       .  A
C922        H931   1.084       .  S
C923        C924   1.409       .  A
C923        S927   1.799       .  S
C924        C925   1.410       .  A
C925        C926   1.405       .  A
C925        H932   1.084       .  S
C926        S928   1.800       .  S
S927        H930   1.406       .  S
S928        H929   1.406       .  S
C933        C934   1.403       .  A
C933        C938   1.419       .  A
C934       C2239   1.399   1_545  A
C934        H943   1.084       .  S
C935       C2238   1.401       .  A
C935        C936   1.410       .  A
C935        S939   1.798       .  S
C936        C937   1.400       .  A
C937       C2242   1.397       .  A
C937        H944   1.084       .  S
C938       C2241   1.398   1_545  A
C938        S940   1.809       .  S
S939        H942   1.402       .  S
S940        H941   1.401       .  S
C945        C946   1.404       .  A
C945        C950   1.423       .  A
C946        C947   1.410   1_455  A
C946        H955   1.083       .  S
C947        C948   1.414       .  A
C947        S951   1.798       .  S
C948        C949   1.395       .  A
C949        C950   1.402   1_655  A
C949        H956   1.083       .  S
C950        S952   1.806       .  S
S951        H954   1.407       .  S
S952        H953   1.407       .  S
C957        C958   1.405       .  A
C957        C962   1.423       .  A
C958        C959   1.395   1_455  A
C958        H967   1.083       .  S
C959        C960   1.426       .  A
C959        S963   1.805       .  S
C960        C961   1.414       .  A
C961        C962   1.421   1_655  A
C961        H968   1.083       .  S
C962        S964   1.799       .  S
S963        H966   1.405       .  S
S964        H965   1.407       .  S
C969        C970   1.405       .  A
C969        C974   1.431       .  A
C970        C971   1.408       .  A
C970        H979   1.083       .  S
C971        C972   1.425       .  A
C971        S975   1.803       .  S
C972        C973   1.400       .  A
C973        C974   1.409       .  A
C973        H980   1.082       .  S
C974        S976   1.810       .  S
S975        H978   1.407       .  S
S976        H977   1.407       .  S
C981        C982   1.407       .  A
C981        C986   1.413       .  A
C982       C2287   1.416       .  A
C982        H991   1.083       .  S
C983       C2286   1.412   1_545  A
C983        C984   1.418       .  A
C983        S987   1.806       .  S
C984        C985   1.405       .  A
C985       C2290   1.405   1_545  A
C985        H992   1.083       .  S
C986       C2289   1.398       .  A
C986        S988   1.800       .  S
S987        H990   1.407       .  S
S988        H989   1.406       .  S
C993        C994   1.409       .  A
C993        C998   1.411       .  A
C994        C995   1.407       .  A
C994       H1003   1.084       .  S
C995        C996   1.412       .  A
C995        S999   1.802       .  S
C996        C997   1.407       .  A
C997        C998   1.407       .  A
C997       H1004   1.080       .  S
C998       S1000   1.801       .  S
S999       H1002   1.406       .  S
S1000      H1001   1.406       .  S
C1005      C1006   1.405       .  A
C1005      C1010   1.409       .  A
C1006      C1007   1.402       .  A
C1006      H1015   1.082       .  S
C1007      C1008   1.409       .  A
C1007      S1011   1.801       .  S
C1008      C1009   1.406       .  A
C1009      C1010   1.400       .  A
C1009      H1016   1.085       .  S
C1010      S1012   1.803       .  S
S1011      H1014   1.404       .  S
S1012      H1013   1.405       .  S
C1017      C1018   1.400       .  A
C1017      C1022   1.416       .  A
C1018      C1019   1.401       .  A
C1018      H1027   1.079       .  S
C1019      C1020   1.415       .  A
C1019      S1023   1.801       .  S
C1020      C1021   1.402       .  A
C1021      C1022   1.403       .  A
C1021      H1028   1.084       .  S
C1022      S1024   1.803       .  S
S1023      H1026   1.405       .  S
S1024      H1025   1.401       .  S
C1029      C1030   1.407       .  A
C1029      C1034   1.414       .  A
C1030      C2335   1.400       .  A
C1030      H1039   1.084       .  S
C1031      C2334   1.394   1_545  A
C1031      C1032   1.412       .  A
C1031      S1035   1.806       .  S
C1032      C1033   1.404       .  A
C1033      C2338   1.411   1_545  A
C1033      H1040   1.083       .  S
C1034      C2337   1.404       .  A
C1034      S1036   1.803       .  S
S1035      H1038   1.407       .  S
S1036      H1037   1.407       .  S
C1041      C1042   1.410       .  A
C1041      C1046   1.415       .  A
C1042      C1043   1.410       .  A
C1042      H1051   1.083       .  S
C1043      C1044   1.412       .  A
C1043      S1047   1.802       .  S
C1044      C1045   1.412       .  A
C1045      C1046   1.412       .  A
C1045      H1052   1.084       .  S
C1046      S1048   1.804       .  S
S1047      H1050   1.404       .  S
S1048      H1049   1.403       .  S
C1053      C1054   1.400       .  A
C1053      C1058   1.411       .  A
C1054      C1055   1.403       .  A
C1054      H1063   1.084       .  S
C1055      C1056   1.414       .  A
C1055      S1059   1.796       .  S
C1056      C1057   1.401       .  A
C1057      C1058   1.408       .  A
C1057      H1064   1.083       .  S
C1058      S1060   1.800       .  S
S1059      H1062   1.408       .  S
S1060      H1061   1.407       .  S
C1065      C1066   1.415       .  A
C1065      C1070   1.426       .  A
C1066      C1067   1.417       .  A
C1066      H1075   1.083       .  S
C1067      C1068   1.414       .  A
C1067      S1071   1.801       .  S
C1068      C1069   1.401       .  A
C1069      C1070   1.393       .  A
C1069      H1076   1.084       .  S
C1070      S1072   1.815       .  S
S1071      H1074   1.404       .  S
S1072      H1073   1.407       .  S
C1077      C1078   1.405       .  A
C1077      C1082   1.407       .  A
C1078      C1079   1.402       .  A
C1078      H1087   1.082       .  S
C1079      C1080   1.408       .  A
C1079      S1083   1.802       .  S
C1080      C1081   1.407       .  A
C1081      C1082   1.405       .  A
C1081      H1088   1.082       .  S
C1082      S1084   1.802       .  S
S1083      H1086   1.407       .  S
S1084      H1085   1.405       .  S
C1089      C1090   1.404       .  A
C1089      C1094   1.415       .  A
C1090      C1091   1.408       .  A
C1090      H1099   1.083       .  S
C1091      C1092   1.417       .  A
C1091      S1095   1.807       .  S
C1092      C1093   1.405       .  A
C1093      C1094   1.403       .  A
C1093      H1100   1.084       .  S
C1094      S1096   1.801       .  S
S1095      H1098   1.406       .  S
S1096      H1097   1.403       .  S
C1101      C1102   1.406       .  A
C1101      C1106   1.424       .  A
C1102      C2407   1.413       .  A
C1102      H1111   1.083       .  S
C1103      C2406   1.409   1_545  A
C1103      C1104   1.411       .  A
C1103      S1107   1.803       .  S
C1104      C1105   1.414       .  A
C1105      C2410   1.409   1_545  A
C1105      H1112   1.084       .  S
C1106      C2409   1.406       .  A
C1106      S1108   1.803       .  S
S1107      H1110   1.408       .  S
S1108      H1109   1.407       .  S
C1113      C1114   1.413       .  A
C1113      C1118   1.433       .  A
C1114      C1115   1.415       .  A
C1114      H1123   1.081       .  S
C1115      C1116   1.413       .  A
C1115      S1119   1.801       .  S
C1116      C1117   1.392       .  A
C1117      C1118   1.387       .  A
C1117      H1124   1.085       .  S
C1118      S1120   1.819   1_455  S
S1119      H1122   1.404       .  S
S1120      H1121   1.407       .  S
C1125      C1126   1.407       .  A
C1125      C1130   1.411       .  A
C1126      C1127   1.383       .  A
C1126      H1135   1.085       .  S
C1127      C1128   1.407       .  A
C1127      S1131   1.803       .  S
C1128      C1129   1.412       .  A
C1129      C1130   1.412       .  A
C1129      H1136   1.083       .  S
C1130      S1132   1.799       .  S
S1131      H1134   1.407   1_455  S
S1132      H1133   1.407       .  S
C1137      C1138   1.406       .  A
C1137      C1142   1.410       .  A
C1138      C1139   1.406       .  A
C1138      H1147   1.083       .  S
C1139      C1140   1.416       .  A
C1139      S1143   1.799       .  S
C1140      C1141   1.403       .  A
C1141      C1142   1.403       .  A
C1141      H1148   1.077       .  S
C1142      S1144   1.802       .  S
S1143      H1146   1.402       .  S
S1144      H1145   1.407       .  S
C1149      C1150   1.401       .  A
C1149      C1154   1.402       .  A
C1150      C1151   1.407       .  A
C1150      H1159   1.083       .  S
C1151      C1152   1.421       .  A
C1151      S1155   1.807       .  S
C1152      C1153   1.411       .  A
C1153      C1154   1.393       .  A
C1153      H1160   1.078       .  S
C1154      S1156   1.795       .  S
S1155      H1158   1.407       .  S
S1156      H1157   1.405       .  S
C1161      C1162   1.406       .  A
C1161      C1166   1.408       .  A
C1162      C1163   1.407       .  A
C1162      H1171   1.084       .  S
C1163      C1164   1.415       .  A
C1163      S1167   1.802       .  S
C1164      C1165   1.408       .  A
C1165      C1166   1.401       .  A
C1165      H1172   1.083       .  S
C1166      S1168   1.803       .  S
S1167      H1170   1.408       .  S
S1168      H1169   1.406       .  S
C1173      C1174   1.417       .  A
C1173      C1178   1.423       .  A
C1174      C1175   1.385       .  A
C1174      H1183   1.077       .  S
C1175      C1176   1.405       .  A
C1175      S1179   1.813       .  S
C1176      C1177   1.413       .  A
C1177      C1178   1.419       .  A
C1177      H1184   1.083       .  S
C1178      S1180   1.795       .  S
S1179      H1182   1.408       .  S
S1180      H1181   1.407       .  S
C1185      C1186   1.410       .  A
C1185      C1190   1.415       .  A
C1186      C1187   1.405       .  A
C1186      H1195   1.083       .  S
C1187      C1188   1.409       .  A
C1187      S1191   1.801       .  S
C1188      C1189   1.402       .  A
C1189      C1190   1.395       .  A
C1189      H1196   1.081       .  S
C1190      S1192   1.801       .  S
S1191      H1194   1.405       .  S
S1192      H1193   1.408       .  S
C1197      C1198   1.410       .  A
C1197      C1202   1.410       .  A
C1198      C1199   1.404       .  A
C1198      H1207   1.083       .  S
C1199      C1200   1.406       .  A
C1199      S1203   1.800       .  S
C1200      C1201   1.406       .  A
C1201      C1202   1.394       .  A
C1201      H1208   1.084       .  S
C1202      S1204   1.810       .  S
S1203      H1206   1.404       .  S
S1204      H1205   1.406       .  S
C1209      C1210   1.404       .  A
C1209      C1214   1.410       .  A
C1210      C1211   1.387       .  A
C1210      H1219   1.082       .  S
C1211      C1212   1.417       .  A
C1211      S1215   1.815       .  S
C1212      C1213   1.411       .  A
C1213      C1214   1.407       .  A
C1213      H1220   1.083       .  S
C1214      S1216   1.798       .  S
S1215      H1218   1.406   1_545  S
S1216      H1217   1.406       .  S
C1221      C1222   1.407       .  A
C1221      C1226   1.411       .  A
C1222      C1223   1.411       .  A
C1222      H1231   1.083       .  S
C1223      C1224   1.413       .  A
C1223      S1227   1.805       .  S
C1224      C1225   1.401       .  A
C1225      C1226   1.399       .  A
C1225      H1232   1.076       .  S
C1226      S1228   1.802       .  S
S1227      H1230   1.407       .  S
S1228      H1229   1.408       .  S
C1233      C1234   1.397       .  A
C1233      C1238   1.415       .  A
C1234      C1235   1.390       .  A
C1234      H1243   1.083       .  S
C1235      C1236   1.433       .  A
C1235      S1239   1.819   1_655  S
C1236      C1237   1.412       .  A
C1237      C1238   1.413       .  A
C1237      H1244   1.079       .  S
C1238      S1240   1.798       .  S
S1239      H1242   1.407       .  S
S1240      H1241   1.406       .  S
C1245      C1246   1.406       .  A
C1245      C1250   1.422       .  A
C1246      C1247   1.398       .  A
C1246      H1255   1.082       .  S
C1247      C1248   1.404       .  A
C1247      S1251   1.796       .  S
C1248      C1249   1.398       .  A
C1249      C1250   1.398       .  A
C1249      H1256   1.083       .  S
C1250      S1252   1.804       .  S
S1251      H1254   1.405       .  S
S1252      H1253   1.408       .  S
C1257      C1258   1.413       .  A
C1257      C1262   1.424       .  A
C1258      C1259   1.404       .  A
C1258      H1267   1.081       .  S
C1259      C1260   1.410       .  A
C1259      S1263   1.803       .  S
C1260      C1261   1.394       .  A
C1261      C1262   1.388       .  A
C1261      H1268   1.082       .  S
C1262      S1264   1.817       .  S
S1263      H1266   1.406       .  S
S1264      H1265   1.406       .  S
C1269      C1270   1.412       .  A
C1269      C1274   1.433       .  A
C1270      C1271   1.413       .  A
C1270      H1279   1.082       .  S
C1271      C1272   1.413       .  A
C1271      S1275   1.798       .  S
C1272      C1273   1.394       .  A
C1273      C1274   1.388       .  A
C1273      H1280   1.084       .  S
C1274      S1276   1.821       .  S
S1275      H1278   1.405       .  S
S1276      H1277   1.407       .  S
C1281      C1282   1.414       .  A
C1281      C1286   1.427       .  A
C1282      C1283   1.401       .  A
C1282      H1291   1.080       .  S
C1283      C1284   1.403       .  A
C1283      S1287   1.801       .  S
C1284      C1285   1.399       .  A
C1285      C1286   1.403       .  A
C1285      H1292   1.084       .  S
C1286      S1288   1.802       .  S
S1287      H1290   1.405       .  S
S1288      H1289   1.408       .  S
C1293      C1294   1.400       .  A
C1293      C1298   1.407       .  A
C1294      C1295   1.403       .  A
C1294      H1303   1.084       .  S
C1295      C1296   1.423       .  A
C1295      S1299   1.800       .  S
C1296      C1297   1.411       .  A
C1297      C1298   1.396       .  A
C1297      H1304   1.080       .  S
C1298      S1300   1.800       .  S
S1299      H1302   1.408       .  S
S1300      H1301   1.405       .  S
C1305      C1307   1.536       .  S
C1305      C1309   1.537       .  S
C1305      C1308   1.556       .  S
C1305      C1921   1.534       .  S
C1306      C1310   1.532       .  S
C1306      C1312   1.533       .  S
C1306      C1311   1.557       .  S
C1306      C1909   1.527       .  S
C1307      C1315   1.377       .  A
C1307      C1310   1.368       .  A
C1308      C1319   1.390       .  A
C1308      C1311   1.438       .  A
C1309      C1323   1.393       .  A
C1309      C1312   1.381       .  A
C1310      C1313   1.377       .  A
C1311      C1317   1.382       .  A
C1312      C1320   1.388       .  A
C1313      N1314   1.364       .  A
C1313      H1326   1.073       .  S
N1314      C1315   1.367       .  A
N1314      C1948   1.461       .  S
C1315      H1316   1.080       .  S
C1317      N1318   1.348       .  A
C1317      H1327   1.082       .  S
N1318      C1319   1.353       .  A
N1318      N1364   1.406       .  S
C1319      H1325   1.082       .  S
C1320      N1321   1.358       .  A
C1320      H1322   1.077       .  S
N1321      C1323   1.358       .  A
N1321      C1933   1.465       .  S
C1323      H1324   1.080       .  S
C1328      C1332   1.524       .  S
C1328      C1331   1.557       .  S
C1328      C1888   1.542   1_455  S
C1329      C1333   1.550       .  S
C1329      C1334   1.536       .  S
C1329      C1876   1.550       .  S
C1330      C1338   1.373   1_455  A
C1330      C1333   1.394       .  A
C1331      C1342   1.388   1_455  A
C1332      C1346   1.372       .  A
C1332      C1335   1.392       .  A
C1333      C1336   1.399       .  A
C1334      C1340   1.367       .  A
C1335      C1343   1.392       .  A
C1336      N1337   1.355   1_455  A
C1336      H1349   1.076       .  S
N1337      C1338   1.344       .  A
N1337      C1897   1.445       .  S
C1338      H1339   1.080       .  S
C1340      H1350   1.082       .  S
N1341      C1342   1.359       .  A
N1341      N1387   1.401       .  S
C1342      H1348   1.080       .  S
C1343      N1344   1.357       .  A
C1343      H1345   1.075       .  S
N1344      C1346   1.348       .  A
N1344      C1864   1.438       .  S
C1346      H1347   1.083       .  S
C1351      C1353   1.540       .  S
C1351      C1355   1.533       .  S
C1351      C2006   1.552       .  S
C1351      C1825   1.547       .  S
C1352      C1356   1.556       .  S
C1352      C1358   1.543       .  S
C1352      C2009   1.543       .  S
C1352      C1813   1.544       .  S
C1353      C1361   1.373       .  A
C1353      C1356   1.390       .  A
C1354      C2003   1.561       .  S
C1354      C1365   1.392   1_556  A
C1354      C1357   1.419       .  A
C1355      C1369   1.383       .  A
C1355      C1358   1.380       .  A
C1356      C1359   1.392       .  A
C1357      C2004   1.540       .  S
C1357      C1363   1.369   1_556  A
C1358      C1366   1.386       .  A
C1359      N1360   1.361       .  A
C1359      H1372   1.078       .  S
N1360      C1361   1.350       .  A
N1360      C1837   1.446       .  S
C1361      H1362   1.082       .  S
C1363      N1364   1.350       .  A
C1363      H1373   1.082       .  S
N1364      C1365   1.363       .  A
C1365      H1371   1.081       .  S
C1366      N1367   1.354       .  A
C1366      H1368   1.076       .  S
N1367      C1369   1.352       .  A
N1367      C1849   1.441       .  S
C1369      H1370   1.083       .  S
C1374      C1378   1.537       .  S
C1374      C2029   1.551       .  S
C1374      C1792   1.544       .  S
C1375      C1379   1.538   1_455  S
C1375      C2032   1.538       .  S
C1375      C1765   1.538       .  S
C1376      C1384   1.387       .  A
C1376      C1379   1.386       .  A
C1377      C2026   1.562       .  S
C1377      C1388   1.383   1_556  A
C1378      C1392   1.391       .  A
C1378      C1381   1.383   1_665  A
C1379      C1382   1.369       .  A
C1380      C2027   1.544       .  S
C1380      C1386   1.380   1_656  A
C1381      C1389   1.378       .  A
C1382      N1383   1.360       .  A
C1382      H1395   1.079       .  S
N1383      C1384   1.365       .  A
N1383      C1804   1.457       .  S
C1384      H1385   1.075       .  S
C1386      N1387   1.355   1_455  A
C1386      H1396   1.081       .  S
C1388      H1394   1.082       .  S
C1389      N1390   1.351   1_545  A
C1389      H1391   1.082       .  S
N1390      C1392   1.355   1_455  A
N1390      C1780   1.446       .  S
C1392      H1393   1.079       .  S
Fe1397     O1413   2.073       .  S
Fe1397     O1403   2.070       .  S
Fe1397     O1410   2.069       .  S
Fe1397     O1402   2.053       .  S
Fe1397     O1408   1.926       .  S
Fe1398     O1401   2.050       .  S
Fe1398     O1405   2.107       .  S
Fe1398     O1409   2.082       .  S
Fe1398     O1414   2.072       .  S
Fe1398     O1408   1.956       .  S
Fe1399     O1417   2.114       .  S
Fe1399     O1404   2.095       .  S
Fe1399     O1411   2.101       .  S
Fe1399     O1400   2.104       .  S
Fe1399     O1408   1.937       .  S
O1400      C1407   1.276       .  A
O1401      C1415   1.256       .  A
O1402      C1407   1.266       .  A
O1403      C1406   1.273       .  A
O1404      C1416   1.287       .  A
O1405      C1418   1.281       .  A
C1406      O1411   1.280       .  A
C1406      C1936   1.483       .  S
C1407      C1741   1.490       .  S
O1409      C1412   1.266       .  A
O1410      C1412   1.265       .  A
C1412      C1816   1.488       .  S
O1413      C1418   1.268       .  A
O1414      C1416   1.284       .  A
C1415      O1417   1.273       .  A
C1415      C1753   1.496       .  S
C1416      C1729   1.470       .  S
C1418      C1717   1.501       .  S
Fe1419     O1435   2.100       .  S
Fe1419     O1425   2.032       .  S
Fe1419     O1432   2.053       .  S
Fe1419     O1424   2.050       .  S
Fe1419     O1430   1.928       .  S
Fe1420     O1423   2.054       .  S
Fe1420     O1427   2.097       .  S
Fe1420     O1431   2.073       .  S
Fe1420     O1436   2.093       .  S
Fe1420     O1430   1.957       .  S
Fe1421     O1439   2.129       .  S
Fe1421     O1426   2.096       .  S
Fe1421     O1433   2.100       .  S
Fe1421     O1422   2.114       .  S
Fe1421     O1430   1.939       .  S
O1422      C1429   1.279       .  A
O1423      C1437   1.257       .  A
O1424      C1429   1.265       .  A
O1425      C1428   1.267       .  A
O1426      C1438   1.288       .  A
O1427      C1440   1.287       .  A
C1428      O1433   1.279       .  A
C1428      C1852   1.479       .  S
C1429      C1744   1.495       .  S
O1431      C1434   1.258       .  A
O1432      C1434   1.250       .  A
C1434      C1912   1.470       .  S
O1435      C1440   1.283       .  A
O1436      C1438   1.289       .  A
C1437      O1439   1.276       .  A
C1437      C1756   1.512       .  S
C1438      C1705   1.479       .  S
C1440      C1693   1.492       .  S
Fe1441     O1457   1.997       .  S
Fe1441     O1447   2.072       .  S
Fe1441     O1454   2.056       .  S
Fe1441     O1446   2.027       .  S
Fe1441     O1452   1.918       .  S
Fe1442     O1445   2.058       .  S
Fe1442     O1449   2.152       .  S
Fe1442     O1453   2.079       .  S
Fe1442     O1458   2.115       .  S
Fe1442     O1452   1.951       .  S
Fe1443     O1461   2.087       .  S
Fe1443     O1448   2.036       .  S
Fe1443     O1455   2.077       .  S
Fe1443     O1444   2.141       .  S
Fe1443     O1452   1.941       .  S
O1444      C1451   1.283       .  A
O1445      C1459   1.269       .  A
O1446      C1451   1.263       .  A
O1447      C1450   1.266       .  A
O1448      C1460   1.274       .  A
O1449      C1462   1.288       .  A
C1450      O1455   1.266       .  A
C1450      C1840   1.475       .  S
C1451      C1672   1.483       .  S
O1453      C1456   1.263       .  A
O1454      C1456   1.266       .  A
C1456      C1924   1.483       .  S
O1457      C1462   1.264       .  A
O1458      C1460   1.284       .  A
C1459      O1461   1.272       .  A
C1459      C1681   1.488       .  S
C1460      C1657   1.472       .  S
C1462      C1720   1.488       .  S
Fe1463     O1479   2.039       .  S
Fe1463     O1469   2.068       .  S
Fe1463     O1476   2.060       .  S
Fe1463     O1468   2.041       .  S
Fe1463     O1474   1.958       .  S
Fe1464     O1467   2.055       .  S
Fe1464     O1471   2.137       .  S
Fe1464     O1475   2.066       .  S
Fe1464     O1480   2.115       .  S
Fe1464     O1474   1.977       .  S
Fe1465     O1483   2.094       .  S
Fe1465     O1470   2.047       .  S
Fe1465     O1477   2.061       .  S
Fe1465     O1466   2.117       .  S
Fe1465     O1474   1.972       .  S
O1466      C1473   1.278       .  A
O1467      C1481   1.266       .  A
O1468      C1473   1.265       .  A
O1469      C1472   1.267       .  A
O1470      C1482   1.268       .  A
O1471      C1484   1.286       .  A
C1472      O1477   1.264       .  A
C1472      C1945   1.467       .  S
C1473      C1669   1.480       .  S
O1475      C1478   1.262       .  A
O1476      C1478   1.265       .  A
C1478      C1828   1.489       .  S
O1479      C1484   1.266       .  A
O1480      C1482   1.279       .  A
C1481      O1483   1.273       .  A
C1481      C1684   1.484       .  S
C1482      C1648   1.482       .  S
C1484      C1696   1.490       .  S
Fe1485     O1501   2.092       .  S
Fe1485     O1491   2.034       .  S
Fe1485     O1498   2.059       .  S
Fe1485     O1490   2.065       .  S
Fe1485     O1496   1.926       .  S
Fe1486     O1489   2.041       .  S
Fe1486     O1493   2.094       .  S
Fe1486     O1497   2.089       .  S
Fe1486     O1502   2.088       .  S
Fe1486     O1496   1.947       .  S
Fe1487     O1505   2.116       .  S
Fe1487     O1492   2.089       .  S
Fe1487     O1499   2.110       .  S
Fe1487     O1488   2.093       .  S
Fe1487     O1496   1.943       .  S
O1488      C1495   1.271       .  A
O1489      C1503   1.254       .  A
O1490      C1495   1.267       .  A
O1491      C1494   1.270       .  A
O1492      C1504   1.289       .  A
O1493      C1506   1.281       .  A
C1494      O1499   1.284       .  A
C1494      C1777   1.480       .  S
C1495      C1633   1.497       .  S
O1497      C1500   1.263       .  A
O1498      C1500   1.259       .  A
C1500      C1873   1.483       .  S
O1501      C1506   1.280       .  A
O1502      C1504   1.290       .  A
C1503      O1505   1.273       .  A
C1503      C1621   1.516       .  S
C1504      C1660   1.471       .  S
C1506      C1609   1.501       .  S
Fe1507     O1523   2.051       .  S
Fe1507     O1513   2.038       .  S
Fe1507     O1520   2.049       .  S
Fe1507     O1512   2.050       .  S
Fe1507     O1518   1.940       .  S
Fe1508     O1511   2.040       .  S
Fe1508     O1515   2.144       .  S
Fe1508     O1519   2.068       .  S
Fe1508     O1524   2.128       .  S
Fe1508     O1518   1.965       .  S
Fe1509     O1527   2.119       .  S
Fe1509     O1514   2.049       .  S
Fe1509     O1521   2.072       .  S
Fe1509     O1510   2.135       .  S
Fe1509     O1518   1.974       .  S
O1510      C1517   1.282       .  A
O1511      C1525   1.257       .  A
O1512      C1517   1.270       .  A
O1513      C1516   1.265       .  A
O1514      C1526   1.274       .  A
O1515      C1528   1.293       .  A
C1516      O1521   1.267       .  A
C1516      C1861   1.478       .  S
C1517      C1636   1.502       .  S
O1519      C1522   1.259       .  A
O1520      C1522   1.259       .  A
C1522      C1768   1.476       .  S
O1523      C1528   1.274       .  A
O1524      C1526   1.289       .  A
C1525      O1527   1.276       .  A
C1525      C1624   1.504       .  S
C1526      C1645   1.484       .  S
C1528      C1597   1.503       .  S
Fe1529     O1545   2.044       .  S
Fe1529     O1535   2.079       .  S
Fe1529     O1542   2.048       .  S
Fe1529     O1534   2.040       .  S
Fe1529     O1540   1.930       .  S
Fe1530     O1533   2.042       .  S
Fe1530     O1537   2.123       .  S
Fe1530     O1541   2.063       .  S
Fe1530     O1546   2.117       .  S
Fe1530     O1540   1.956       .  S
Fe1531     O1549   2.076       .  S
Fe1531     O1536   2.040       .  S
Fe1531     O1543   2.064       .  S
Fe1531     O1532   2.103       .  S
Fe1531     O1540   1.964       .  S
O1532      C1539   1.269       .  A
O1533      C1547   1.258       .  A
O1534      C1539   1.256       .  A
O1535      C1538   1.275       .  A
O1536      C1548   1.278       .  A
O1537      C1550   1.286       .  A
C1538      O1543   1.273       .  A
C1538      C1900   1.466       .  S
C1539      C1588   1.473       .  S
O1541      C1544   1.260       .  A
O1542      C1544   1.260       .  A
C1544      C1789   1.471       .  S
O1545      C1550   1.272       .  A
O1546      C1548   1.290       .  A
C1547      O1549   1.263       .  A
C1547      C1573   1.477       .  S
C1548      C1732   1.466       .  S
C1550      C1612   1.497       .  S
Fe1551     O1567   2.043       .  S
Fe1551     O1557   2.048       .  S
Fe1551     O1564   2.059       .  S
Fe1551     O1556   2.031       .  S
Fe1551     O1562   1.939       .  S
Fe1552     O1555   2.038       .  S
Fe1552     O1559   2.149       .  S
Fe1552     O1563   2.069       .  S
Fe1552     O1568   2.122       .  S
Fe1552     O1562   1.968       .  S
Fe1553     O1571   2.107       .  S
Fe1553     O1558   2.032       .  S
Fe1553     O1565   2.064       .  S
Fe1553     O1554   2.115       .  S
Fe1553     O1562   1.964       .  S
O1554      C1561   1.284       .  A
O1555      C1569   1.268       .  A
O1556      C1561   1.270       .  A
O1557      C1560   1.260       .  A
O1558      C1570   1.262       .  A
O1559      C1572   1.288       .  A
C1560      O1565   1.261       .  A
C1560      C1801   1.466       .  S
C1561      C1585   1.475       .  S
O1563      C1566   1.262       .  A
O1564      C1566   1.268       .  A
C1566      C1885   1.493       .  S
O1567      C1572   1.267       .  A
O1568      C1570   1.278       .  A
C1569      O1571   1.280       .  A
C1569      C1576   1.485       .  S
C1570      C1708   1.484       .  S
C1572      C1600   1.489       .  S
C1573      C1574   1.408       .  A
C1573      C1578   1.410       .  A
C1574      C1575   1.408       .  A
C1574      H1583   1.083       .  S
C1575      C1576   1.415       .  A
C1575      S1579   1.802       .  S
C1576      C1577   1.406       .  A
C1577      C1578   1.393       .  A
C1577      H1584   1.083       .  S
C1578      S1580   1.806       .  S
S1579      H1582   1.407       .  S
S1580      H1581   1.405       .  S
C1585      C1586   1.404       .  A
C1585      C1590   1.419       .  A
C1586      H1595   1.084       .  S
C1587      C1588   1.411       .  A
C1587      S1591   1.802       .  S
C1588      C1589   1.400       .  A
C1589      H1596   1.084       .  S
C1590      S1592   1.810       .  S
S1591      H1594   1.407       .  S
S1592      H1593   1.400       .  S
C1597      C1598   1.404       .  A
C1597      C1602   1.425       .  A
C1598      C1599   1.412   1_455  A
C1598      H1607   1.083       .  S
C1599      C1600   1.417       .  A
C1599      S1603   1.798       .  S
C1600      C1601   1.397   1_655  A
C1601      C1602   1.406       .  A
C1601      H1608   1.083   1_455  S
C1602      S1604   1.806       .  S
S1603      H1606   1.404       .  S
S1604      H1605   1.407       .  S
C1609      C1610   1.405       .  A
C1609      C1614   1.420       .  A
C1610      C1611   1.392       .  A
C1610      H1619   1.081       .  S
C1611      C1612   1.416   1_455  A
C1611      S1615   1.807   1_455  S
C1612      C1613   1.410       .  A
C1613      C1614   1.417   1_655  A
C1613      H1620   1.082       .  S
C1614      S1616   1.799       .  S
S1615      H1618   1.408       .  S
S1616      H1617   1.407       .  S
C1621      C1622   1.405       .  A
C1621      C1626   1.434       .  A
C1622      C1623   1.409       .  A
C1622      H1631   1.083       .  S
C1623      C1624   1.423       .  A
C1623      S1627   1.803       .  S
C1624      C1625   1.399       .  A
C1625      C1626   1.412       .  A
C1625      H1632   1.082       .  S
C1626      S1628   1.811       .  S
S1627      H1630   1.405       .  S
S1628      H1629   1.407       .  S
C1633      C1634   1.407   1_565  A
C1633      C1638   1.418       .  A
C1634      H1643   1.083   1_545  S
C1635      C1636   1.420       .  A
C1635      S1639   1.806       .  S
C1636      C1637   1.406       .  A
C1637      H1644   1.084       .  S
C1638      S1640   1.800       .  S
S1639      H1642   1.407       .  S
S1640      H1641   1.407       .  S
C1645      C1646   1.409       .  A
C1645      C1650   1.411       .  A
C1646      C1647   1.404       .  A
C1646      H1655   1.084       .  S
C1647      C1648   1.410       .  A
C1647      S1651   1.803       .  S
C1648      C1649   1.406       .  A
C1649      C1650   1.407       .  A
C1649      H1656   1.081       .  S
C1650      S1652   1.799       .  S
S1651      H1654   1.406       .  S
S1652      H1653   1.406       .  S
C1657      C1658   1.404       .  A
C1657      C1662   1.408       .  A
C1658      C1659   1.400       .  A
C1658      H1667   1.080       .  S
C1659      C1660   1.409       .  A
C1659      S1663   1.802       .  S
C1660      C1661   1.406       .  A
C1661      C1662   1.401       .  A
C1661      H1668   1.084       .  S
C1662      S1664   1.801       .  S
S1663      H1666   1.404       .  S
S1664      H1665   1.406       .  S
C1669      C1670   1.399       .  A
C1669      C1674   1.415       .  A
C1670      C1671   1.400       .  A
C1670      H1679   1.081       .  S
C1671      C1672   1.417       .  A
C1671      S1675   1.799       .  S
C1672      C1673   1.402       .  A
C1673      C1674   1.404       .  A
C1673      H1680   1.084       .  S
C1674      S1676   1.799       .  S
S1675      H1678   1.402       .  S
S1676      H1677   1.404       .  S
C1681      C1682   1.408       .  A
C1681      C1686   1.417       .  A
C1682      H1691   1.084       .  S
C1683      C1684   1.412       .  A
C1683      S1687   1.804       .  S
C1684      C1685   1.406       .  A
C1685      H1692   1.084       .  S
C1686      S1688   1.802       .  S
S1687      H1690   1.407       .  S
S1688      H1689   1.407       .  S
C1693      C1694   1.409       .  A
C1693      C1698   1.413       .  A
C1694      C1695   1.407       .  A
C1694      H1703   1.084       .  S
C1695      C1696   1.411       .  A
C1695      S1699   1.802       .  S
C1696      C1697   1.410       .  A
C1697      C1698   1.410       .  A
C1697      H1704   1.084       .  S
C1698      S1700   1.802       .  S
S1699      H1702   1.405       .  S
S1700      H1701   1.404       .  S
C1705      C1706   1.398       .  A
C1705      C1710   1.411       .  A
C1706      C1707   1.402       .  A
C1706      H1715   1.084       .  S
C1707      C1708   1.416       .  A
C1707      S1711   1.795       .  S
C1708      C1709   1.404       .  A
C1709      C1710   1.410       .  A
C1709      H1716   1.083       .  S
C1710      S1712   1.801       .  S
S1711      H1714   1.408       .  S
S1712      H1713   1.407       .  S
C1717      C1718   1.416       .  A
C1717      C1722   1.427       .  A
C1718      C1719   1.417       .  A
C1718      H1727   1.083       .  S
C1719      C1720   1.412       .  A
C1719      S1723   1.797       .  S
C1720      C1721   1.402       .  A
C1721      C1722   1.390       .  A
C1721      H1728   1.083       .  S
C1722      S1724   1.819       .  S
S1723      H1726   1.406       .  S
S1724      H1725   1.406       .  S
C1729      C1730   1.402       .  A
C1729      C1734   1.408       .  A
C1730      C1731   1.396       .  A
C1730      H1739   1.082       .  S
C1731      C1732   1.409       .  A
C1731      S1735   1.805       .  S
C1732      C1733   1.408       .  A
C1733      C1734   1.403       .  A
C1733      H1740   1.084       .  S
C1734      S1736   1.802       .  S
S1735      H1738   1.405       .  S
S1736      H1737   1.405       .  S
C1741      C1742   1.405       .  A
C1741      C1746   1.416       .  A
C1742      C1743   1.410       .  A
C1742      H1751   1.083       .  S
C1743      C1744   1.418       .  A
C1743      S1747   1.806       .  S
C1744      C1745   1.406       .  A
C1745      C1746   1.405       .  A
C1745      H1752   1.084       .  S
C1746      S1748   1.802       .  S
S1747      H1750   1.407       .  S
S1748      H1749   1.401       .  S
C1753      C1754   1.414       .  A
C1753      C1758   1.409       .  A
C1754      H1763   1.084       .  S
C1755      C1756   1.412       .  A
C1755      S1759   1.802       .  S
C1756      C1757   1.416       .  A
C1757      H1764   1.084       .  S
C1758      S1760   1.803       .  S
S1759      H1762   1.407       .  S
S1760      H1761   1.407       .  S
C1765      C1766   1.415       .  A
C1765      C1770   1.434       .  A
C1766      C1767   1.414       .  A
C1766      H1775   1.081       .  S
C1767      C1768   1.411       .  A
C1767      S1771   1.801       .  S
C1768      C1769   1.391       .  A
C1769      C1770   1.389       .  A
C1769      H1776   1.085       .  S
C1770      S1772   1.815   1_455  S
S1771      H1774   1.405       .  S
S1772      H1773   1.408       .  S
C1777      C1778   1.405       .  A
C1777      C1782   1.410       .  A
C1778      C1779   1.389       .  A
C1778      H1787   1.085       .  S
C1779      C1780   1.413       .  A
C1779      S1783   1.805   1_565  S
C1780      C1781   1.414       .  A
C1781      C1782   1.411       .  A
C1781      H1788   1.083       .  S
C1782      S1784   1.801       .  S
S1783      H1786   1.407       .  S
S1784      H1785   1.406       .  S
C1789      C1790   1.401       .  A
C1789      C1794   1.409       .  A
C1790      C1791   1.401       .  A
C1790      H1799   1.084       .  S
C1791      C1792   1.419       .  A
C1791      S1795   1.800       .  S
C1792      C1793   1.405       .  A
C1793      C1794   1.399       .  A
C1793      H1800   1.076       .  S
C1794      S1796   1.803       .  S
S1795      H1798   1.404       .  S
S1796      H1797   1.406       .  S
C1801      C1802   1.401       .  A
C1801      C1806   1.402       .  A
C1802      C1803   1.407       .  A
C1802      H1811   1.083       .  S
C1803      C1804   1.421       .  A
C1803      S1807   1.807       .  S
C1804      C1805   1.411       .  A
C1805      C1806   1.391       .  A
C1805      H1812   1.078       .  S
C1806      S1808   1.796       .  S
S1807      H1810   1.407       .  S
S1808      H1809   1.407       .  S
C1813      C1814   1.405       .  A
C1813      C1818   1.408       .  A
C1814      C1815   1.405       .  A
C1814      H1823   1.083       .  S
C1815      C1816   1.415       .  A
C1815      S1819   1.801       .  S
C1816      C1817   1.408       .  A
C1817      C1818   1.401       .  A
C1817      H1824   1.083       .  S
C1818      S1820   1.804       .  S
S1819      H1822   1.408       .  S
S1820      H1821   1.405       .  S
C1825      C1826   1.418       .  A
C1825      C1830   1.422       .  A
C1826      C1827   1.387       .  A
C1826      H1835   1.078       .  S
C1827      C1828   1.406       .  A
C1827      S1831   1.813       .  S
C1828      C1829   1.409       .  A
C1829      C1830   1.413       .  A
C1829      H1836   1.083       .  S
C1830      S1832   1.794       .  S
S1831      H1834   1.408       .  S
S1832      H1833   1.406       .  S
C1837      C1838   1.410       .  A
C1837      C1842   1.416       .  A
C1838      C1839   1.403       .  A
C1838      H1847   1.083       .  S
C1839      C1840   1.407       .  A
C1839      S1843   1.800       .  S
C1840      C1841   1.402       .  A
C1841      C1842   1.398       .  A
C1841      H1848   1.082       .  S
C1842      S1844   1.796       .  S
S1843      H1846   1.405       .  S
S1844      H1845   1.408       .  S
C1849      C1850   1.410       .  A
C1849      C1854   1.408       .  A
C1850      C1851   1.408       .  A
C1850      H1859   1.083       .  S
C1851      C1852   1.409       .  A
C1851      S1855   1.799       .  S
C1852      C1853   1.407       .  A
C1853      C1854   1.395       .  A
C1853      H1860   1.084       .  S
C1854      S1856   1.809       .  S
S1855      H1858   1.404       .  S
S1856      H1857   1.406       .  S
C1861      C1862   1.404       .  A
C1861      C1866   1.409       .  A
C1862      C1863   1.388       .  A
C1862      H1871   1.081       .  S
C1863      C1864   1.415       .  A
C1863      S1867   1.814       .  S
C1864      C1865   1.410       .  A
C1865      C1866   1.405       .  A
C1865      H1872   1.083       .  S
C1866      S1868   1.799       .  S
S1867      H1870   1.405       .  S
S1868      H1869   1.406       .  S
C1873      C1874   1.409       .  A
C1873      C1878   1.413       .  A
C1874      C1875   1.409       .  A
C1874      H1883   1.083       .  S
C1875      C1876   1.409       .  A
C1875      S1879   1.805       .  S
C1876      C1877   1.403       .  A
C1877      C1878   1.401       .  A
C1877      H1884   1.080       .  S
C1878      S1880   1.803       .  S
S1879      H1882   1.407       .  S
S1880      H1881   1.407       .  S
C1885      C1886   1.398       .  A
C1885      C1890   1.416       .  A
C1886      C1887   1.388       .  A
C1886      H1895   1.082       .  S
C1887      C1888   1.434       .  A
C1887      S1891   1.822   1_655  S
C1888      C1889   1.410       .  A
C1889      C1890   1.413       .  A
C1889      H1896   1.076       .  S
C1890      S1892   1.798       .  S
S1891      H1894   1.407       .  S
S1892      H1893   1.407       .  S
C1897      C1898   1.405       .  A
C1897      C1902   1.422       .  A
C1898      C1899   1.400       .  A
C1898      H1907   1.083       .  S
C1899      C1900   1.407       .  A
C1899      S1903   1.794       .  S
C1900      C1901   1.397       .  A
C1901      C1902   1.397       .  A
C1901      H1908   1.084       .  S
C1902      S1904   1.804       .  S
S1903      H1906   1.405       .  S
S1904      H1905   1.408       .  S
C1909      C1910   1.413       .  A
C1909      C1914   1.426       .  A
C1910      C1911   1.407       .  A
C1910      H1919   1.081       .  S
C1911      C1912   1.411       .  A
C1911      S1915   1.802       .  S
C1912      C1913   1.393       .  A
C1913      C1914   1.388       .  A
C1913      H1920   1.082       .  S
C1914      S1916   1.818       .  S
S1915      H1918   1.406       .  S
S1916      H1917   1.407       .  S
C1921      C1922   1.413       .  A
C1921      C1926   1.435       .  A
C1922      C1923   1.417       .  A
C1922      H1931   1.081       .  S
C1923      C1924   1.410       .  A
C1923      S1927   1.802       .  S
C1924      C1925   1.392       .  A
C1925      C1926   1.388       .  A
C1925      H1932   1.084       .  S
C1926      S1928   1.816       .  S
S1927      H1930   1.407       .  S
S1928      H1929   1.408       .  S
C1933      C1934   1.415       .  A
C1933      C1938   1.427       .  A
C1934      C1935   1.404       .  A
C1934      H1943   1.080       .  S
C1935      C1936   1.404       .  A
C1935      S1939   1.798       .  S
C1936      C1937   1.401       .  A
C1937      C1938   1.407       .  A
C1937      H1944   1.084       .  S
C1938      S1940   1.801       .  S
S1939      H1942   1.406       .  S
S1940      H1941   1.408       .  S
C1945      C1946   1.399       .  A
C1945      C1950   1.406       .  A
C1946      C1947   1.401       .  A
C1946      H1955   1.084       .  S
C1947      C1948   1.422       .  A
C1947      S1951   1.800       .  S
C1948      C1949   1.412       .  A
C1949      C1950   1.398       .  A
C1949      H1956   1.080       .  S
C1950      S1952   1.801       .  S
S1951      H1954   1.408       .  S
S1952      H1953   1.405       .  S
C1957      C1959   1.542       .  S
C1957      C1961   1.538       .  S
C1957      C1960   1.549       .  S
C1957      C2573   1.531       .  S
C1958      C1962   1.528       .  S
C1958      C1964   1.532       .  S
C1958      C1963   1.562       .  S
C1958      C2561   1.528       .  S
C1959      C1967   1.381       .  A
C1959      C1962   1.366       .  A
C1960      C1971   1.385       .  A
C1960      C1963   1.435       .  A
C1961      C1975   1.396       .  A
C1961      C1964   1.385       .  A
C1962      C1965   1.375       .  A
C1963      C1969   1.382       .  A
C1964      C1972   1.383       .  A
C1965      N1966   1.363       .  A
C1965      H1978   1.074       .  S
N1966      C1967   1.367       .  A
N1966      C2600   1.462       .  S
C1967      H1968   1.079       .  S
C1969      N1970   1.350       .  A
C1969      H1979   1.081       .  S
N1970      C1971   1.352       .  A
N1970      N2016   1.404       .  S
C1971      H1977   1.082       .  S
C1972      N1973   1.355       .  A
C1972      H1974   1.076       .  S
N1973      C1975   1.358       .  A
N1973      C2585   1.462       .  S
C1975      H1976   1.080       .  S
C1980      C1984   1.520       .  S
C1980      C1983   1.557   1_455  S
C1980      C2540   1.546   1_455  S
C1981      C1985   1.548       .  S
C1981      C1986   1.536       .  S
C1981      C2528   1.550       .  S
C1982      C1990   1.377   1_455  A
C1982      C1985   1.395       .  A
C1983      C1994   1.391       .  A
C1984      C1998   1.370       .  A
C1984      C1987   1.390       .  A
C1985      C1988   1.398       .  A
C1986      C1992   1.368       .  A
C1987      C1995   1.393       .  A
C1988      N1989   1.352   1_455  A
C1988      H2001   1.075       .  S
N1989      C1990   1.344       .  A
N1989      C2549   1.446       .  S
C1990      H1991   1.081       .  S
C1992      H2002   1.083       .  S
N1993      C1994   1.357   1_455  A
N1993      N2039   1.402   1_455  S
C1994      H2000   1.081       .  S
C1995      N1996   1.358       .  A
C1995      H1997   1.075       .  S
N1996      C1998   1.349       .  A
N1996      C2516   1.443       .  S
C1998      H1999   1.083       .  S
C2003      C2005   1.539       .  S
C2003      C2007   1.529       .  S
C2003      C2477   1.553       .  S
C2004      C2008   1.557       .  S
C2004      C2010   1.549       .  S
C2004      C2465   1.547       .  S
C2005      C2013   1.373       .  A
C2005      C2008   1.385       .  A
C2006      C2017   1.390       .  A
C2006      C2009   1.423       .  A
C2007      C2021   1.379       .  A
C2007      C2010   1.381       .  A
C2008      C2011   1.395       .  A
C2009      C2015   1.373       .  A
C2010      C2018   1.389       .  A
C2011      N2012   1.363       .  A
C2011      H2024   1.077       .  S
N2012      C2013   1.350       .  A
N2012      C2489   1.449       .  S
C2013      H2014   1.082       .  S
C2015      N2016   1.348       .  A
C2015      H2025   1.082       .  S
N2016      C2017   1.356       .  A
C2017      H2023   1.082       .  S
C2018      N2019   1.355       .  A
C2018      H2020   1.075       .  S
N2019      C2021   1.350       .  A
N2019      C2501   1.440       .  S
C2021      H2022   1.083       .  S
C2026      C2030   1.541       .  S
C2026      C2444   1.546       .  S
C2027      C2031   1.534       .  S
C2027      C2417   1.540   1_655  S
C2028      C2036   1.388       .  A
C2028      C2031   1.393       .  A
C2029      C2040   1.374       .  A
C2030      C2044   1.393       .  A
C2030      C2033   1.377   1_565  A
C2031      C2034   1.375       .  A
C2032      C2038   1.386       .  A
C2033      C2041   1.374   1_645  A
C2034      N2035   1.352       .  A
C2034      H2047   1.082       .  S
N2035      C2036   1.356       .  A
N2035      C2456   1.443       .  S
C2036      H2037   1.073       .  S
C2038      N2039   1.352   1_455  A
C2038      H2048   1.082       .  S
C2040      H2046   1.082       .  S
C2041      N2042   1.351       .  A
C2041      H2043   1.082   1_565  S
N2042      C2044   1.357   1_455  A
N2042      C2432   1.444       .  S
C2044      H2045   1.079       .  S
Fe2049     O2065   2.071       .  S
Fe2049     O2055   2.071       .  S
Fe2049     O2062   2.064       .  S
Fe2049     O2054   2.043       .  S
Fe2049     O2060   1.935       .  S
Fe2050     O2053   2.040       .  S
Fe2050     O2057   2.113       .  S
Fe2050     O2061   2.079       .  S
Fe2050     O2066   2.096       .  S
Fe2050     O2060   1.955       .  S
Fe2051     O2069   2.121       .  S
Fe2051     O2056   2.082       .  S
Fe2051     O2063   2.088       .  S
Fe2051     O2052   2.113       .  S
Fe2051     O2060   1.951       .  S
O2052      C2059   1.276       .  A
O2053      C2067   1.257       .  A
O2054      C2059   1.261       .  A
O2055      C2058   1.274       .  A
O2056      C2068   1.285       .  A
O2057      C2070   1.281       .  A
C2058      O2063   1.278       .  A
C2058      C2588   1.475       .  S
C2059      C2393   1.491       .  S
O2061      C2064   1.264       .  A
O2062      C2064   1.264       .  A
C2064      C2468   1.485       .  S
O2065      C2070   1.267       .  A
O2066      C2068   1.288       .  A
C2067      O2069   1.273       .  A
C2067      C2405   1.516       .  S
C2068      C2381   1.476       .  S
C2070      C2369   1.503       .  S
Fe2071     O2087   2.085       .  S
Fe2071     O2077   2.035       .  S
Fe2071     O2084   2.052       .  S
Fe2071     O2076   2.046       .  S
Fe2071     O2082   1.932       .  S
Fe2072     O2075   2.060       .  S
Fe2072     O2079   2.112       .  S
Fe2072     O2083   2.087       .  S
Fe2072     O2088   2.104       .  S
Fe2072     O2082   1.963       .  S
Fe2073     O2091   2.117       .  S
Fe2073     O2078   2.092       .  S
Fe2073     O2085   2.087       .  S
Fe2073     O2074   2.111       .  S
Fe2073     O2082   1.944       .  S
O2074      C2081   1.278       .  A
O2075      C2089   1.259       .  A
O2076      C2081   1.264       .  A
O2077      C2080   1.268       .  A
O2078      C2090   1.283       .  A
O2079      C2092   1.285       .  A
C2080      O2085   1.276       .  A
C2080      C2504   1.465       .  S
C2081      C2396   1.491       .  S
O2083      C2086   1.262       .  A
O2084      C2086   1.253       .  A
C2086      C2564   1.467       .  S
O2087      C2092   1.276       .  A
O2088      C2090   1.288       .  A
C2089      O2091   1.274       .  A
C2089      C2408   1.495       .  S
C2090      C2357   1.487       .  S
C2092      C2345   1.494       .  S
Fe2093     O2109   2.004       .  S
Fe2093     O2099   2.079       .  S
Fe2093     O2106   2.046       .  S
Fe2093     O2098   2.034       .  S
Fe2093     O2104   1.923       .  S
Fe2094     O2097   2.043       .  S
Fe2094     O2101   2.137       .  S
Fe2094     O2105   2.073       .  S
Fe2094     O2110   2.115       .  S
Fe2094     O2104   1.959       .  S
Fe2095     O2113   2.088       .  S
Fe2095     O2100   2.040       .  S
Fe2095     O2107   2.069       .  S
Fe2095     O2096   2.127       .  S
Fe2095     O2104   1.953       .  S
O2096      C2103   1.277       .  A
O2097      C2111   1.263       .  A
O2098      C2103   1.260       .  A
O2099      C2102   1.270       .  A
O2100      C2112   1.275       .  A
O2101      C2114   1.286       .  A
C2102      O2107   1.269       .  A
C2102      C2492   1.472       .  S
C2103      C2324   1.480       .  S
O2105      C2108   1.260       .  A
O2106      C2108   1.266       .  A
C2108      C2576   1.483       .  S
O2109      C2114   1.266       .  A
O2110      C2112   1.286       .  A
C2111      O2113   1.269       .  A
C2111      C2333   1.491       .  S
C2112      C2309   1.469       .  S
C2114      C2372   1.489       .  S
Fe2115     O2131   2.040       .  S
Fe2115     O2121   2.071       .  S
Fe2115     O2128   2.063       .  S
Fe2115     O2120   2.051       .  S
Fe2115     O2126   1.944       .  S
Fe2116     O2119   2.051       .  S
Fe2116     O2123   2.154       .  S
Fe2116     O2127   2.076       .  S
Fe2116     O2132   2.125       .  S
Fe2116     O2126   1.968       .  S
Fe2117     O2135   2.090       .  S
Fe2117     O2122   2.039       .  S
Fe2117     O2129   2.069       .  S
Fe2117     O2118   2.121       .  S
Fe2117     O2126   1.959       .  S
O2118      C2125   1.282       .  A
O2119      C2133   1.266       .  A
O2120      C2125   1.271       .  A
O2121      C2124   1.265       .  A
O2122      C2134   1.267       .  A
O2123      C2136   1.292       .  A
C2124      O2129   1.263       .  A
C2124      C2597   1.473       .  S
C2125      C2321   1.485       .  S
O2127      C2130   1.262       .  A
O2128      C2130   1.264       .  A
C2130      C2480   1.493       .  S
O2131      C2136   1.270       .  A
O2132      C2134   1.282       .  A
C2133      O2135   1.274       .  A
C2133      C2336   1.481       .  S
C2134      C2300   1.485       .  S
C2136      C2348   1.500       .  S
Fe2137     O2153   2.095       .  S
Fe2137     O2143   2.025       .  S
Fe2137     O2150   2.052       .  S
Fe2137     O2142   2.067       .  S
Fe2137     O2148   1.923       .  S
Fe2138     O2141   2.047       .  S
Fe2138     O2145   2.092       .  S
Fe2138     O2149   2.095       .  S
Fe2138     O2154   2.086       .  S
Fe2138     O2148   1.953       .  S
Fe2139     O2157   2.096       .  S
Fe2139     O2144   2.100       .  S
Fe2139     O2151   2.112       .  S
Fe2139     O2140   2.086       .  S
Fe2139     O2148   1.939       .  S
O2140      C2147   1.269       .  A
O2141      C2155   1.257       .  A
O2142      C2147   1.267       .  A
O2143      C2146   1.268       .  A
O2144      C2156   1.291       .  A
O2145      C2158   1.279       .  A
C2146      O2151   1.284       .  A
C2146      C2429   1.477       .  S
C2147      C2285   1.491       .  S
O2149      C2152   1.265       .  A
O2150      C2152   1.258       .  A
C2152      C2525   1.480       .  S
O2153      C2158   1.280       .  A
O2154      C2156   1.289       .  A
C2155      O2157   1.268       .  A
C2155      C2273   1.504       .  S
C2156      C2312   1.476       .  S
C2158      C2261   1.504       .  S
Fe2159     O2175   2.037       .  S
Fe2159     O2165   2.034       .  S
Fe2159     O2172   2.029       .  S
Fe2159     O2164   2.043       .  S
Fe2159     O2170   1.935       .  S
Fe2160     O2163   2.047       .  S
Fe2160     O2167   2.144       .  S
Fe2160     O2171   2.086       .  S
Fe2160     O2176   2.127       .  S
Fe2160     O2170   1.976       .  S
Fe2161     O2179   2.109       .  S
Fe2161     O2166   2.044       .  S
Fe2161     O2173   2.075       .  S
Fe2161     O2162   2.134       .  S
Fe2161     O2170   1.971       .  S
O2162      C2169   1.285       .  A
O2163      C2177   1.263       .  A
O2164      C2169   1.273       .  A
O2165      C2168   1.261       .  A
O2166      C2178   1.268       .  A
O2167      C2180   1.291       .  A
C2168      O2173   1.263       .  A
C2168      C2513   1.474       .  S
C2169      C2288   1.497       .  S
O2171      C2174   1.262       .  A
O2172      C2174   1.260       .  A
C2174      C2420   1.485       .  S
O2175      C2180   1.272       .  A
O2176      C2178   1.284       .  A
C2177      O2179   1.278       .  A
C2177      C2276   1.499       .  S
C2178      C2297   1.487       .  S
C2180      C2249   1.492       .  S
Fe2181     O2197   2.040       .  S
Fe2181     O2187   2.074       .  S
Fe2181     O2194   2.052       .  S
Fe2181     O2186   2.036       .  S
Fe2181     O2192   1.931       .  S
Fe2182     O2185   2.048       .  S
Fe2182     O2189   2.130       .  S
Fe2182     O2193   2.065       .  S
Fe2182     O2198   2.119       .  S
Fe2182     O2192   1.961       .  S
Fe2183     O2201   2.082       .  S
Fe2183     O2188   2.059       .  S
Fe2183     O2195   2.069       .  S
Fe2183     O2184   2.102       .  S
Fe2183     O2192   1.965       .  S
O2184      C2191   1.269       .  A
O2185      C2199   1.260       .  A
O2186      C2191   1.257       .  A
O2187      C2190   1.272       .  A
O2188      C2200   1.280       .  A
O2189      C2202   1.288       .  A
C2190      O2195   1.273       .  A
C2190      C2552   1.468       .  S
C2191      C2240   1.471       .  S
O2193      C2196   1.259       .  A
O2194      C2196   1.259       .  A
C2196      C2441   1.475       .  S
O2197      C2202   1.272       .  A
O2198      C2200   1.290       .  A
C2199      O2201   1.265       .  A
C2199      C2225   1.491       .  S
C2200      C2384   1.477       .  S
C2202      C2264   1.501       .  S
Fe2203     O2219   2.031       .  S
Fe2203     O2209   2.031       .  S
Fe2203     O2216   2.045       .  S
Fe2203     O2208   2.035       .  S
Fe2203     O2214   1.934       .  S
Fe2204     O2207   2.056       .  S
Fe2204     O2211   2.153       .  S
Fe2204     O2215   2.091       .  S
Fe2204     O2220   2.134       .  S
Fe2204     O2214   1.963       .  S
Fe2205     O2223   2.098       .  S
Fe2205     O2210   2.029       .  S
Fe2205     O2217   2.070       .  S
Fe2205     O2206   2.116       .  S
Fe2205     O2214   1.961       .  S
O2206      C2213   1.284       .  A
O2207      C2221   1.268       .  A
O2208      C2213   1.272       .  A
O2209      C2212   1.259       .  A
O2210      C2222   1.263       .  A
O2211      C2224   1.292       .  A
C2212      O2217   1.260       .  A
C2212      C2453   1.468       .  S
C2213      C2237   1.477       .  S
O2215      C2218   1.266       .  A
O2216      C2218   1.262       .  A
C2218      C2537   1.495       .  S
O2219      C2224   1.269       .  A
O2220      C2222   1.283       .  A
C2221      O2223   1.277       .  A
C2221      C2228   1.493       .  S
C2222      C2360   1.486       .  S
C2224      C2252   1.492       .  S
C2225      C2226   1.407       .  A
C2225      C2230   1.411       .  A
C2226      C2227   1.405       .  A
C2226      H2235   1.083       .  S
C2227      C2228   1.412       .  A
C2227      S2231   1.804       .  S
C2228      C2229   1.411       .  A
C2229      C2230   1.409       .  A
C2229      H2236   1.083       .  S
C2230      S2232   1.807       .  S
S2231      H2234   1.407       .  S
S2232      H2233   1.407       .  S
C2237      C2238   1.404       .  A
C2237      C2242   1.418       .  A
C2238      H2247   1.083       .  S
C2239      C2240   1.410       .  A
C2239      S2243   1.797       .  S
C2240      C2241   1.400       .  A
C2241      H2248   1.084       .  S
C2242      S2244   1.808       .  S
S2243      H2246   1.406       .  S
S2244      H2245   1.400       .  S
C2249      C2250   1.401       .  A
C2249      C2254   1.419       .  A
C2250      C2251   1.407   1_455  A
C2250      H2259   1.084       .  S
C2251      C2252   1.421       .  A
C2251      S2255   1.802       .  S
C2252      C2253   1.400       .  A
C2253      C2254   1.408   1_655  A
C2253      H2260   1.083       .  S
C2254      S2256   1.805       .  S
S2255      H2258   1.408       .  S
S2256      H2257   1.407       .  S
C2261      C2262   1.404       .  A
C2261      C2266   1.421       .  A
C2262      C2263   1.392   1_455  A
C2262      H2271   1.081       .  S
C2263      C2264   1.418       .  A
C2263      S2267   1.807       .  S
C2264      C2265   1.411       .  A
C2265      C2266   1.420   1_655  A
C2265      H2272   1.083       .  S
C2266      S2268   1.799       .  S
S2267      H2270   1.408       .  S
S2268      H2269   1.407       .  S
C2273      C2274   1.403       .  A
C2273      C2278   1.426       .  A
C2274      C2275   1.407       .  A
C2274      H2283   1.084       .  S
C2275      C2276   1.424       .  A
C2275      S2279   1.802       .  S
C2276      C2277   1.400       .  A
C2277      C2278   1.403       .  A
C2277      H2284   1.084       .  S
C2278      S2280   1.798       .  S
S2279      H2282   1.404       .  S
S2280      H2281   1.403       .  S
C2285      C2286   1.405       .  A
C2285      C2290   1.416       .  A
C2286      H2295   1.083       .  S
C2287      C2288   1.418       .  A
C2287      S2291   1.806       .  S
C2288      C2289   1.405       .  A
C2289      H2296   1.084       .  S
C2290      S2292   1.808       .  S
S2291      H2294   1.407       .  S
S2292      H2293   1.406       .  S
C2297      C2298   1.408       .  A
C2297      C2302   1.412       .  A
C2298      C2299   1.407       .  A
C2298      H2307   1.084       .  S
C2299      C2300   1.412       .  A
C2299      S2303   1.802       .  S
C2300      C2301   1.406       .  A
C2301      C2302   1.406       .  A
C2301      H2308   1.082       .  S
C2302      S2304   1.799       .  S
S2303      H2306   1.406       .  S
S2304      H2305   1.406       .  S
C2309      C2310   1.405       .  A
C2309      C2314   1.407       .  A
C2310      C2311   1.401       .  A
C2310      H2319   1.084       .  S
C2311      C2312   1.410       .  A
C2311      S2315   1.797       .  S
C2312      C2313   1.405       .  A
C2313      C2314   1.398       .  A
C2313      H2320   1.085       .  S
C2314      S2316   1.801       .  S
S2315      H2318   1.405       .  S
S2316      H2317   1.405       .  S
C2321      C2322   1.401       .  A
C2321      C2326   1.415       .  A
C2322      C2323   1.402       .  A
C2322      H2331   1.078       .  S
C2323      C2324   1.414       .  A
C2323      S2327   1.804       .  S
C2324      C2325   1.403       .  A
C2325      C2326   1.403       .  A
C2325      H2332   1.084       .  S
C2326      S2328   1.803       .  S
S2327      H2330   1.407       .  S
S2328      H2329   1.405       .  S
C2333      C2334   1.406       .  A
C2333      C2338   1.419       .  A
C2334      H2343   1.084       .  S
C2335      C2336   1.410       .  A
C2335      S2339   1.800       .  S
C2336      C2337   1.407       .  A
C2337      H2344   1.084       .  S
C2338      S2340   1.807       .  S
S2339      H2342   1.406       .  S
S2340      H2341   1.407       .  S
C2345      C2346   1.411       .  A
C2345      C2350   1.413       .  A
C2346      C2347   1.412       .  A
C2346      H2355   1.084       .  S
C2347      C2348   1.413       .  A
C2347      S2351   1.799       .  S
C2348      C2349   1.411       .  A
C2349      C2350   1.408       .  A
C2349      H2356   1.084       .  S
C2350      S2352   1.803       .  S
S2351      H2354   1.406       .  S
S2352      H2353   1.405       .  S
C2357      C2358   1.401       .  A
C2357      C2362   1.413       .  A
C2358      C2359   1.406       .  A
C2358      H2367   1.084       .  S
C2359      C2360   1.417       .  A
C2359      S2363   1.796       .  S
C2360      C2361   1.403       .  A
C2361      C2362   1.410       .  A
C2361      H2368   1.083       .  S
C2362      S2364   1.801       .  S
S2363      H2366   1.407       .  S
S2364      H2365   1.407       .  S
C2369      C2370   1.414       .  A
C2369      C2374   1.426       .  A
C2370      C2371   1.418       .  A
C2370      H2379   1.083       .  S
C2371      C2372   1.415       .  A
C2371      S2375   1.798       .  S
C2372      C2373   1.400       .  A
C2373      C2374   1.390       .  A
C2373      H2380   1.084       .  S
C2374      S2376   1.813       .  S
S2375      H2378   1.405       .  S
S2376      H2377   1.408       .  S
C2381      C2382   1.403       .  A
C2381      C2386   1.406       .  A
C2382      C2383   1.401       .  A
C2382      H2391   1.080       .  S
C2383      C2384   1.409       .  A
C2383      S2387   1.803       .  S
C2384      C2385   1.409       .  A
C2385      C2386   1.406       .  A
C2385      H2392   1.083       .  S
C2386      S2388   1.801       .  S
S2387      H2390   1.405       .  S
S2388      H2389   1.405       .  S
C2393      C2394   1.404       .  A
C2393      C2398   1.418       .  A
C2394      C2395   1.409       .  A
C2394      H2403   1.083       .  S
C2395      C2396   1.416       .  A
C2395      S2399   1.805       .  S
C2396      C2397   1.404       .  A
C2397      C2398   1.406       .  A
C2397      H2404   1.084       .  S
C2398      S2400   1.800       .  S
S2399      H2402   1.407       .  S
S2400      H2401   1.398       .  S
C2405      C2406   1.420       .  A
C2405      C2410   1.416       .  A
C2406      H2415   1.083       .  S
C2407      C2408   1.421       .  A
C2407      S2411   1.804       .  S
C2408      C2409   1.401       .  A
C2409      H2416   1.084       .  S
C2410      S2412   1.799       .  S
S2411      H2414   1.406       .  S
S2412      H2413   1.407       .  S
C2417      C2418   1.415       .  A
C2417      C2422   1.432       .  A
C2418      C2419   1.416       .  A
C2418      H2427   1.079       .  S
C2419      C2420   1.413       .  A
C2419      S2423   1.801       .  S
C2420      C2421   1.395       .  A
C2421      C2422   1.386       .  A
C2421      H2428   1.083       .  S
C2422      S2424   1.822   1_455  S
S2423      H2426   1.406       .  S
S2424      H2425   1.406       .  S
C2429      C2430   1.405       .  A
C2429      C2434   1.411       .  A
C2430      C2431   1.387       .  A
C2430      H2439   1.085       .  S
C2431      C2432   1.412       .  A
C2431      S2435   1.806   1_565  S
C2432      C2433   1.414       .  A
C2433      C2434   1.411       .  A
C2433      H2440   1.083       .  S
C2434      S2436   1.802       .  S
S2435      H2438   1.408       .  S
S2436      H2437   1.405       .  S
C2441      C2442   1.403       .  A
C2441      C2446   1.410       .  A
C2442      C2443   1.404       .  A
C2442      H2451   1.084       .  S
C2443      C2444   1.418       .  A
C2443      S2447   1.800       .  S
C2444      C2445   1.405       .  A
C2445      C2446   1.400       .  A
C2445      H2452   1.077       .  S
C2446      S2448   1.804       .  S
S2447      H2450   1.402       .  S
S2448      H2449   1.407       .  S
C2453      C2454   1.398       .  A
C2453      C2458   1.406       .  A
C2454      C2455   1.392       .  A
C2454      H2463   1.082       .  S
C2455      C2456   1.420       .  A
C2455      S2459   1.811       .  S
C2456      C2457   1.410       .  A
C2457      C2458   1.402       .  A
C2457      H2464   1.083       .  S
C2458      S2460   1.797       .  S
S2459      H2462   1.407       .  S
S2460      H2461   1.403       .  S
C2465      C2466   1.404       .  A
C2465      C2470   1.410       .  A
C2466      C2467   1.404       .  A
C2466      H2475   1.083       .  S
C2467      C2468   1.414       .  A
C2467      S2471   1.802       .  S
C2468      C2469   1.408       .  A
C2469      C2470   1.402       .  A
C2469      H2476   1.083       .  S
C2470      S2472   1.804       .  S
S2471      H2474   1.407       .  S
S2472      H2473   1.404       .  S
C2477      C2478   1.418       .  A
C2477      C2482   1.422       .  A
C2478      C2479   1.382       .  A
C2478      H2487   1.078       .  S
C2479      C2480   1.406       .  A
C2479      S2483   1.815       .  S
C2480      C2481   1.414       .  A
C2481      C2482   1.421       .  A
C2481      H2488   1.083       .  S
C2482      S2484   1.795       .  S
S2483      H2486   1.408       .  S
S2484      H2485   1.406       .  S
C2489      C2490   1.412       .  A
C2489      C2494   1.418       .  A
C2490      C2491   1.401       .  A
C2490      H2499   1.083       .  S
C2491      C2492   1.407       .  A
C2491      S2495   1.802       .  S
C2492      C2493   1.402       .  A
C2493      C2494   1.400       .  A
C2493      H2500   1.085       .  S
C2494      S2496   1.796       .  S
S2495      H2498   1.405       .  S
S2496      H2497   1.407       .  S
C2501      C2502   1.412       .  A
C2501      C2506   1.411       .  A
C2502      C2503   1.405       .  A
C2502      H2511   1.083       .  S
C2503      C2504   1.406       .  A
C2503      S2507   1.802       .  S
C2504      C2505   1.403       .  A
C2505      C2506   1.394       .  A
C2505      H2512   1.083       .  S
C2506      S2508   1.810       .  S
S2507      H2510   1.404       .  S
S2508      H2509   1.406       .  S
C2513      C2514   1.400       .  A
C2513      C2518   1.407       .  A
C2514      C2515   1.391       .  A
C2514      H2523   1.080       .  S
C2515      C2516   1.418       .  A
C2515      S2519   1.813       .  S
C2516      C2517   1.412       .  A
C2517      C2518   1.405       .  A
C2517      H2524   1.083       .  S
C2518      S2520   1.799       .  S
S2519      H2522   1.403       .  S
S2520      H2521   1.404       .  S
C2525      C2526   1.407       .  A
C2525      C2530   1.412       .  A
C2526      C2527   1.409       .  A
C2526      H2535   1.082       .  S
C2527      C2528   1.413       .  A
C2527      S2531   1.806       .  S
C2528      C2529   1.402       .  A
C2529      C2530   1.400       .  A
C2529      H2536   1.077       .  S
C2530      S2532   1.803       .  S
S2531      H2534   1.407       .  S
S2532      H2533   1.408       .  S
C2537      C2538   1.400       .  A
C2537      C2542   1.416       .  A
C2538      C2539   1.392       .  A
C2538      H2547   1.083       .  S
C2539      C2540   1.432       .  A
C2539      S2543   1.819   1_655  S
C2540      C2541   1.412       .  A
C2541      C2542   1.416       .  A
C2541      H2548   1.080       .  S
C2542      S2544   1.800       .  S
S2543      H2546   1.407       .  S
S2544      H2545   1.406       .  S
C2549      C2550   1.404       .  A
C2549      C2554   1.422       .  A
C2550      C2551   1.399       .  A
C2550      H2559   1.083       .  S
C2551      C2552   1.407       .  A
C2551      S2555   1.794       .  S
C2552      C2553   1.399       .  A
C2553      C2554   1.399       .  A
C2553      H2560   1.084       .  S
C2554      S2556   1.804       .  S
S2555      H2558   1.405       .  S
S2556      H2557   1.408       .  S
C2561      C2562   1.411       .  A
C2561      C2566   1.427       .  A
C2562      C2563   1.407       .  A
C2562      H2571   1.080       .  S
C2563      C2564   1.409       .  A
C2563      S2567   1.802       .  S
C2564      C2565   1.392       .  A
C2565      C2566   1.388       .  A
C2565      H2572   1.079       .  S
C2566      S2568   1.820       .  S
S2567      H2570   1.406       .  S
S2568      H2569   1.406       .  S
C2573      C2574   1.414       .  A
C2573      C2578   1.433       .  A
C2574      C2575   1.414       .  A
C2574      H2583   1.083       .  S
C2575      C2576   1.414       .  A
C2575      S2579   1.798       .  S
C2576      C2577   1.391       .  A
C2577      C2578   1.386       .  A
C2577      H2584   1.085       .  S
C2578      S2580   1.820       .  S
S2579      H2582   1.405       .  S
S2580      H2581   1.408       .  S
C2585      C2586   1.414       .  A
C2585      C2590   1.426       .  A
C2586      C2587   1.405       .  A
C2586      H2595   1.081       .  S
C2587      C2588   1.404       .  A
C2587      S2591   1.801       .  S
C2588      C2589   1.399       .  A
C2589      C2590   1.402       .  A
C2589      H2596   1.084       .  S
C2590      S2592   1.802       .  S
S2591      H2594   1.406       .  S
S2592      H2593   1.408       .  S
C2597      C2598   1.399       .  A
C2597      C2602   1.406       .  A
C2598      C2599   1.404       .  A
C2598      H2607   1.084       .  S
C2599      C2600   1.423       .  A
C2599      S2603   1.801       .  S
C2600      C2601   1.412       .  A
C2601      C2602   1.397       .  A
C2601      H2608   1.079       .  S
C2602      S2604   1.798       .  S
S2603      H2606   1.408       .  S
S2604      H2605   1.406       .  S
