geometry optimzed in LAMMPS
_audit_creation_date              2020-12-01 
_audit_creation_method            'lammps2cif' 
_symmetry_space_group_name_H-M    'P1' 
_symmetry_Int_Tables_number       1 
_symmetry_cell_setting            triclinic 
loop_ 
_symmetry_equiv_pos_as_xyz 
  x,y,z 
_cell_length_a                    53.25035722 
_cell_length_b                    42.51659402112017 
_cell_length_c                    37.812496123913384 
_cell_angle_alpha                 89.1585820520133 
_cell_angle_beta                  90.09982089280636 
_cell_angle_gamma                 90.03547864721969 
loop_ 
_atom_site_label 
_atom_site_type_symbol 
_atom_site_fract_x 
_atom_site_fract_y 
_atom_site_fract_z 
_atom_site_charge 
O1          O  0.56262110  0.48885427  0.99822023    -0.72400
O2          O  0.63737197  0.48611216  0.99614971    -0.73400
O3          O  0.60077885  0.47627198  0.04877163    -0.62000
O4          O  0.59939031  0.49974335  0.94497722    -0.70400
O5          O  0.60070206  0.55014608  0.95908265    -0.70000
O6          O  0.60182169  0.52685283  0.06207668    -0.61200
O7          O  0.63887642  0.53696612  0.00875190    -0.73700
O8          O  0.56325309  0.53947568  0.01143273    -0.72500
Cu9        Cu  0.59995572  0.48600828  0.99653279     1.04600
Cu10       Cu  0.60118710  0.54012646  0.01086238     1.04300
C11         C  0.55099675  0.51428033  0.00511586     0.93800
C12         C  0.64990641  0.51104848  0.00200285     0.92900
C13         C  0.60167979  0.49794552  0.07183597     0.85100
C14         C  0.60007980  0.52881633  0.93567967     0.91300
O15         O  0.27379997  0.51825285  0.00020424    -0.72400
O16         O  0.34856768  0.52479937  0.00380367    -0.73400
O17         O  0.31146575  0.53229502  0.94953446    -0.62000
O18         O  0.31052038  0.50979813  0.05419623    -0.70400
O19         O  0.31552227  0.45969106  0.04048514    -0.70000
O20         O  0.31275147  0.48147386  0.93776154    -0.61200
O21         O  0.35179236  0.47484061  0.98838857    -0.73700
O22         O  0.27654768  0.46691077  0.99078301    -0.72500
Cu23       Cu  0.31101428  0.52312207  0.00239393     1.04600
Cu24       Cu  0.31428589  0.46903744  0.98886609     1.04300
C25         C  0.26340482  0.49158713  0.99560654     0.93800
C26         C  0.36206600  0.50098449  0.99640463     0.92900
C27         C  0.31182022  0.51005023  0.92703496     0.85100
C28         C  0.31300484  0.48091352  0.06369215     0.91300
C29         C  0.33371396  0.57612406  0.67206782     0.87000
C30         C  0.36138100  0.57233327  0.66052317    -0.53200
C31         C  0.36725975  0.58715308  0.62926607     0.09900
C32         C  0.34495118  0.60445145  0.61214028     0.20900
C33         C  0.33011772  0.61209414  0.67225450    -0.53900
C34         C  0.33569313  0.62684049  0.64096230     0.10000
C35         C  0.31832603  0.56474105  0.64042118    -0.53500
C36         C  0.32449060  0.57917429  0.60913330     0.10600
H37         H  0.37584000  0.56129408  0.67655676     0.15100
H38         H  0.34939808  0.61630390  0.58655256     0.00900
H39         H  0.32444444  0.62498869  0.69549588     0.15400
H40         H  0.30453931  0.54594707  0.64232637     0.15200
C41         C  0.32553943  0.40699692  0.31799978     0.87000
C42         C  0.35392035  0.41126993  0.32341330    -0.53200
C43         C  0.36262380  0.40218534  0.35596446     0.09900
C44         C  0.34184326  0.39012778  0.38090045     0.20900
C45         C  0.32089013  0.37197885  0.32753570    -0.53900
C46         C  0.32953626  0.36311304  0.36031431     0.10000
C47         C  0.31330863  0.42487638  0.34831858    -0.53500
C48         C  0.32192988  0.41644518  0.38111388     0.10600
H49         H  0.36610946  0.42058959  0.30279165     0.15100
H50         H  0.34853386  0.38292687  0.40764239     0.00900
H51         H  0.31274227  0.35490468  0.31006560     0.15400
H52         H  0.29913609  0.44292109  0.34417032     0.15200
N53         N  0.30795715  0.53890267  0.52843550    -0.26800
N54         N  0.28642785  0.55276487  0.53611690    -0.34600
C55         C  0.28948919  0.57075220  0.56470886     0.01600
C56         C  0.31419420  0.56878472  0.57520643     0.07600
C57         C  0.32543291  0.54836591  0.55182177    -0.05500
H58         H  0.27445703  0.58280699  0.57814016     0.08300
H59         H  0.34433452  0.53911677  0.55349002     0.09500
Cu60       Cu  0.25250118  0.54367054  0.51214633     0.44200
Cu61       Cu  0.31137728  0.50335369  0.49085623     0.42000
Cu62       Cu  0.25027222  0.47267374  0.46498778     0.43900
N63         N  0.21929632  0.52498037  0.49410451    -0.34100
N64         N  0.21827760  0.49733394  0.47871948    -0.28400
C65         C  0.19408195  0.48943385  0.47384089    -0.04500
C66         C  0.17930736  0.51359331  0.48630777     0.07700
C67         C  0.19585111  0.53581466  0.49886842     0.01500
H68         H  0.18773034  0.46769518  0.46226126     0.09200
H69         H  0.19120626  0.55740414  0.51219830     0.08200
N70         N  0.28416343  0.45542091  0.44670840    -0.35600
N71         N  0.30659290  0.46627925  0.45546578    -0.27800
C72         C  0.32402816  0.45182409  0.43550063    -0.03000
C73         C  0.31184786  0.43112055  0.41321042     0.05600
C74         C  0.28667428  0.43428550  0.42093373     0.03700
H75         H  0.34378564  0.45779432  0.43515588     0.08800
H76         H  0.27114330  0.42360645  0.40707482     0.07600
C77         C  0.32645513  0.91067760  0.69523718     0.87000
C78         C  0.31024875  0.92462651  0.66501841    -0.53200
C79         C  0.31602432  0.91327655  0.63241880     0.09900
C80         C  0.33718696  0.88866902  0.63267940     0.20900
C81         C  0.32334440  0.87495628  0.69227587    -0.53900
C82         C  0.32927946  0.86313302  0.65991804     0.10000
C83         C  0.35349524  0.91723052  0.68282583    -0.53500
C84         C  0.35929710  0.90550323  0.65040798     0.10600
H85         H  0.29720223  0.94392356  0.66756646     0.15100
H86         H  0.34150159  0.87964561  0.60598922     0.00900
H87         H  0.31764395  0.86016165  0.71450599     0.15400
H88         H  0.36717544  0.92934200  0.69907154     0.15200
C89         C  0.33626953  0.07971483  0.33900803     0.87000
C90         C  0.32085195  0.06582314  0.36999580    -0.53200
C91         C  0.32631364  0.07885066  0.40197722     0.09900
C92         C  0.34656222  0.10464905  0.40036125     0.20900
C93         C  0.33196119  0.11530248  0.34037138    -0.53900
C94         C  0.33725086  0.12846145  0.37218779     0.10000
C95         C  0.36362384  0.07502800  0.35138286    -0.53500
C96         C  0.36913619  0.08849455  0.38303921     0.10600
H97         H  0.30794346  0.04623240  0.36780394     0.15100
H98         H  0.35097185  0.11524214  0.42632851     0.00900
H99         H  0.32577149  0.12914030  0.31760302     0.15400
H100        H  0.37778021  0.06309255  0.33591967     0.15200
N101        N  0.30629157  0.03552963  0.48059847    -0.26800
N102        N  0.28517320  0.04982170  0.47117757    -0.34600
C103        C  0.28963190  0.06902013  0.44335809     0.01600
C104        C  0.31476374  0.06733142  0.43506192     0.07600
C105        C  0.32482875  0.04579674  0.45903698    -0.05500
H106        H  0.27523461  0.08163469  0.42865687     0.08300
H107        H  0.34372019  0.03642338  0.45893987     0.09500
Cu108      Cu  0.24993397  0.03916147  0.49094196     0.44200
Cu109      Cu  0.30786752  0.99887167  0.51835870     0.42000
Cu110      Cu  0.24614440  0.96804049  0.54091810     0.43900
N111        N  0.21608040  0.01804454  0.50371361    -0.34100
N112        N  0.21486868  0.99038187  0.51997878    -0.28400
C113        C  0.19073964  0.98123230  0.52193475    -0.04500
C114        C  0.17608451  0.00453090  0.50664856     0.07700
C115        C  0.19268363  0.02764662  0.49556023     0.01500
H116        H  0.18428001  0.95967260  0.53464483     0.09200
H117        H  0.18813483  0.04959047  0.48198271     0.08200
N118        N  0.27913573  0.95199947  0.56384030    -0.35600
N119        N  0.30180811  0.96240706  0.55541028    -0.27800
C120        C  0.31870862  0.94809728  0.57685172    -0.03000
C121        C  0.30595368  0.92804943  0.59984952     0.05600
C122        C  0.28093927  0.93146652  0.59110685     0.03700
H123        H  0.33852668  0.95360369  0.57747661     0.08800
H124        H  0.26507983  0.92098604  0.60470482     0.07600
O125        O  0.60257573  0.99281846  0.05413429    -0.72400
O126        O  0.60140563  0.96999287  0.95044160    -0.73400
O127        O  0.63927848  0.98161119  0.00063047    -0.62000
O128        O  0.56426875  0.98017080  0.00379808    -0.70400
O129        O  0.56305234  0.03043638  0.98741154    -0.70000
O130        O  0.63862173  0.03284783  0.98822235    -0.61200
O131        O  0.60144114  0.02075340  0.93642687    -0.73700
O132        O  0.60064658  0.04323407  0.03877888    -0.72500
Cu133      Cu  0.60187408  0.97936201  0.00278144     1.04600
Cu134      Cu  0.60086835  0.03354556  0.98716532     1.04300
C135        C  0.60175571  0.02182654  0.06278025     0.93800
C136        C  0.60177284  0.99203985  0.92700593     0.92900
C137        C  0.65074311  0.00737554  0.99411251     0.85100
C138        C  0.55172370  0.00493305  0.99608174     0.91300
O139        O  0.35048014  0.97677854  0.02602246    -0.72400
O140        O  0.27501652  0.97544309  0.02279110    -0.73400
O141        O  0.31401206  0.96246787  0.97461393    -0.62000
O142        O  0.31143529  0.98982469  0.07536592    -0.70400
O143        O  0.31254074  0.03979941  0.05797907    -0.70000
O144        O  0.31278361  0.01222751  0.95654440    -0.61200
O145        O  0.27490224  0.02610951  0.00758602    -0.73700
O146        O  0.35024956  0.02640970  0.00727600    -0.72500
Cu147      Cu  0.31271876  0.97443542  0.02540706     1.04600
Cu148      Cu  0.31258142  0.02789434  0.00672567     1.04300
C149        C  0.36233089  0.00157583  0.01624031     0.93800
C150        C  0.26313750  0.00068177  0.01493471     0.92900
C151        C  0.31385493  0.98289251  0.94954177     0.85100
C152        C  0.31185095  0.01906206  0.08278157     0.91300
C153        C  0.57590348  0.92450631  0.67521885     0.87000
C154        C  0.54803867  0.92701914  0.66407203    -0.53200
C155        C  0.54280922  0.91394506  0.63223562     0.09900
C156        C  0.56553982  0.89938143  0.61396881     0.20900
C157        C  0.58129595  0.88898419  0.67353827    -0.53900
C158        C  0.57598370  0.87580781  0.64157931     0.10000
C159        C  0.59051015  0.93897104  0.64407828    -0.53500
C160        C  0.58495278  0.92607572  0.61214477     0.10600
H161        H  0.53300920  0.93601907  0.68014510     0.15100
H162        H  0.56103031  0.88881565  0.58801564     0.00900
H163        H  0.58852049  0.87539568  0.69584804     0.15400
H164        H  0.60389977  0.95805965  0.64697457     0.15200
C165        C  0.58591964  0.09334056  0.31754346     0.87000
C166        C  0.55774363  0.09192704  0.32641576    -0.53200
C167        C  0.55143899  0.10468473  0.35809071     0.09900
C168        C  0.57398721  0.11791409  0.37849783     0.20900
C169        C  0.59295989  0.12814643  0.32097192    -0.53900
C170        C  0.58653337  0.14158140  0.35242640     0.10000
C171        C  0.59856675  0.07716332  0.34980899    -0.53500
C172        C  0.59235770  0.09008660  0.38147667     0.10600
H173        H  0.54390910  0.08134269  0.30910436     0.15100
H174        H  0.56851380  0.12785097  0.40427873     0.00900
H175        H  0.60218051  0.14098536  0.29963638     0.15400
H176        H  0.61042740  0.05662413  0.34908893     0.15200
N177        N  0.60722329  0.04265293  0.45951132    -0.26800
N178        N  0.62849150  0.05839105  0.45526020    -0.34600
C179        C  0.62578610  0.07920792  0.42834787     0.01600
C180        C  0.60162044  0.07684541  0.41531442     0.07600
C181        C  0.59047906  0.05318117  0.43535318    -0.05500
H182        H  0.64079055  0.09354745  0.41756799     0.08300
H183        H  0.57217411  0.04284877  0.43110386     0.09500
Cu184      Cu  0.66169363  0.04758524  0.48176206     0.44200
Cu185      Cu  0.60269655  0.00507992  0.49530739     0.42000
Cu186      Cu  0.66099258  0.97365458  0.52872658     0.43900
N187        N  0.69372806  0.02622996  0.50237245    -0.34100
N188        N  0.69349004  0.99791679  0.51727553    -0.28400
C189        C  0.71718753  0.98868461  0.52382814    -0.04500
C190        C  0.73307277  0.01255874  0.51300938     0.07700
C191        C  0.71766026  0.03608613  0.49970976     0.01500
H192        H  0.72243652  0.96617350  0.53555257     0.09200
H193        H  0.72348884  0.05806078  0.48728237     0.08200
N194        N  0.62637624  0.95795963  0.54542024    -0.35600
N195        N  0.60472678  0.96919343  0.53364684    -0.27800
C196        C  0.58611511  0.95700091  0.55375924    -0.03000
C197        C  0.59675943  0.93738919  0.57926547     0.05600
C198        C  0.62223920  0.93881273  0.57331235     0.03700
H199        H  0.56663923  0.96414811  0.55210461     0.08800
H200        H  0.63688439  0.92872405  0.58988180     0.07600
C201        C  0.58657449  0.59855669  0.67859996     0.87000
C202        C  0.59914730  0.58003673  0.64857878    -0.53200
C203        C  0.59166987  0.58924659  0.61543088     0.09900
C204        C  0.57256174  0.61631555  0.61486217     0.20900
C205        C  0.59281799  0.63305807  0.66934667    -0.53900
C206        C  0.58515089  0.64256908  0.63630915     0.10000
C207        C  0.55827777  0.59552098  0.67152598    -0.53500
C208        C  0.55096814  0.60484381  0.63845655     0.10600
H209        H  0.61319858  0.56191186  0.65225437     0.15100
H210        H  0.56659423  0.62388010  0.58788281     0.00900
H211        H  0.60135437  0.64905847  0.68800920     0.15400
H212        H  0.54501498  0.58709621  0.69132381     0.15200
C213        C  0.57868490  0.42540396  0.32532350     0.87000
C214        C  0.59334211  0.44080049  0.35546609    -0.53200
C215        C  0.58904365  0.42743731  0.38795433     0.09900
C216        C  0.57078223  0.39940744  0.38762549     0.20900
C217        C  0.58563777  0.39032993  0.32780778    -0.53900
C218        C  0.58207731  0.37667810  0.36045154     0.10000
C219        C  0.55106773  0.42601498  0.33745422    -0.53500
C220        C  0.54700529  0.41254768  0.36979278     0.10600
H221        H  0.60574195  0.46085029  0.35154159     0.15100
H222        H  0.56741376  0.38872462  0.41416852     0.00900
H223        H  0.59231387  0.37730705  0.30520436     0.15400
H224        H  0.53533530  0.43417229  0.32163729     0.15200
N225        N  0.60862696  0.54321737  0.53866922    -0.26800
N226        N  0.63067391  0.55513147  0.54751265    -0.34600
C227        C  0.62766115  0.57453428  0.57490204     0.01600
C228        C  0.60248604  0.57541376  0.58339012     0.07600
C229        C  0.59088688  0.55527513  0.55998381    -0.05500
H230        H  0.64285114  0.58588862  0.58880137     0.08300
H231        H  0.57135383  0.54817499  0.56012688     0.09500
Cu232      Cu  0.66455654  0.54144026  0.52589978     0.44200
Cu233      Cu  0.60491259  0.50757564  0.50160906     0.42000
Cu234      Cu  0.66436027  0.47000777  0.47725755     0.43900
N235        N  0.69702962  0.51908841  0.50998519    -0.34100
N236        N  0.69707152  0.49139087  0.49457609    -0.28400
C237        C  0.72098551  0.48181954  0.49058438    -0.04500
C238        C  0.73661063  0.50497872  0.50354512     0.07700
C239        C  0.72085209  0.52829837  0.51545500     0.01500
H240        H  0.72657261  0.46008285  0.47829868     0.09200
H241        H  0.72626840  0.54997672  0.52803135     0.08200
N242        N  0.62968672  0.45843204  0.45597570    -0.35600
N243        N  0.60812996  0.47171398  0.46473224    -0.27800
C244        C  0.58992024  0.46073973  0.44341713    -0.03000
C245        C  0.60058064  0.43973962  0.42025440     0.05600
C246        C  0.62578686  0.43909260  0.42868341     0.03700
H247        H  0.57073355  0.46912540  0.44310224     0.08800
H248        H  0.64046438  0.42690122  0.41467339     0.07600
O249        O  0.13992290  0.53977991  0.48366749    -0.72400
O250        O  0.06428979  0.53914410  0.48778037    -0.73400
O251        O  0.10349171  0.55150030  0.53676422    -0.62000
O252        O  0.10070750  0.52739966  0.43425516    -0.70400
O253        O  0.09989644  0.47713825  0.45047325    -0.70000
O254        O  0.10611965  0.50121636  0.55255575    -0.61200
O255        O  0.06537526  0.48941010  0.50609487    -0.73700
O256        O  0.14028538  0.48863122  0.49649698    -0.72500
Cu257      Cu  0.10209675  0.54125476  0.48503855     1.04600
Cu258      Cu  0.10293899  0.48739168  0.50195136     1.04300
C259        C  0.15189490  0.51407846  0.48886102     0.93800
C260        C  0.05288518  0.51420581  0.49820684     0.92900
C261        C  0.10521079  0.53023043  0.56090710     0.85100
C262        C  0.09981810  0.49832418  0.42612502     0.91300
O263        O  0.77588919  0.53063619  0.49709776    -0.72400
O264        O  0.85135936  0.53164795  0.49886803    -0.73400
O265        O  0.81409467  0.51813912  0.44645517    -0.62000
O266        O  0.81312743  0.54414437  0.54828842    -0.70400
O267        O  0.81304263  0.49413210  0.56540952    -0.70000
O268        O  0.81441485  0.46794317  0.46288064    -0.61200
O269        O  0.85156482  0.48138539  0.51532671    -0.73700
O270        O  0.77602885  0.48002535  0.51249567    -0.72500
Cu271      Cu  0.81359645  0.53281829  0.49703013     1.04600
Cu272      Cu  0.81376744  0.47910443  0.51464992     1.04300
C273        C  0.76412292  0.50517134  0.50436164     0.93800
C274        C  0.86341365  0.50677281  0.50781940     0.92900
C275        C  0.81419647  0.48903082  0.43836681     0.85100
C276        C  0.81323483  0.52340025  0.57305461     0.91300
C277        C  0.83566934  0.59093788  0.82894072     0.87000
C278        C  0.81972342  0.57830571  0.86015611    -0.53200
C279        C  0.82658633  0.58984449  0.89224257     0.09900
C280        C  0.84852219  0.61316378  0.89079160     0.20900
C281        C  0.83375756  0.62695138  0.83163236    -0.53900
C282        C  0.84049802  0.63850288  0.86377867     0.10000
C283        C  0.86286537  0.58346027  0.84021922    -0.53500
C284        C  0.86970588  0.59541637  0.87223122     0.10600
H285        H  0.80503951  0.56091483  0.85869753     0.15100
H286        H  0.85390929  0.62259597  0.91698810     0.00900
H287        H  0.82810950  0.64211154  0.80967221     0.15400
H288        H  0.87607374  0.57160705  0.82308586     0.15200
C289        C  0.82705762  0.41939302  0.18235708     0.87000
C290        C  0.81275035  0.43538625  0.15138934    -0.53200
C291        C  0.81857591  0.42349360  0.11899848     0.09900
C292        C  0.83781085  0.39661801  0.12010943     0.20900
C293        C  0.82101706  0.38426002  0.17850814    -0.53900
C294        C  0.82711564  0.37210797  0.14639809     0.10000
C295        C  0.85488778  0.42234782  0.17184882    -0.53500
C296        C  0.86042065  0.41037002  0.13952350     0.10600
H297        H  0.79974275  0.45482140  0.15388449     0.15100
H298        H  0.84257805  0.38694775  0.09381757     0.00900
H299        H  0.81375533  0.36979947  0.20012005     0.15400
H300        H  0.86919307  0.43206111  0.18906636     0.15200
N301        N  0.80353190  0.47113898  0.04145741    -0.26800
N302        N  0.78174333  0.45695821  0.04713017    -0.34600
C303        C  0.78419967  0.43639506  0.07427531     0.01600
C304        C  0.80874945  0.43724047  0.08587178     0.07600
C305        C  0.82050896  0.45953578  0.06464054    -0.05500
H306        H  0.76887318  0.42329059  0.08611927     0.08300
H307        H  0.83943194  0.46834704  0.06758308     0.09500
Cu308      Cu  0.74839278  0.46969235  0.02272043     0.44200
Cu309      Cu  0.80822116  0.50909083  0.00643162     0.42000
Cu310      Cu  0.74988018  0.54379580  0.97646770     0.43900
N311        N  0.71641933  0.49342067  0.00647264    -0.34100
N312        N  0.71702196  0.52181999  0.99181766    -0.28400
C313        C  0.69343754  0.53263290  0.98824204    -0.04500
C314        C  0.67729406  0.50971167  0.00082562     0.07700
C315        C  0.69238548  0.48507511  0.01195876     0.01500
H316        H  0.68842291  0.55535318  0.97682684     0.09200
H317        H  0.68639107  0.46314768  0.02434199     0.08200
N318        N  0.78471106  0.55840898  0.95883258    -0.35600
N319        N  0.80624391  0.54631017  0.96994314    -0.27800
C320        C  0.82496171  0.55847259  0.95006394    -0.03000
C321        C  0.81458700  0.57887493  0.92518674     0.05600
C322        C  0.78907161  0.57803892  0.93139354     0.03700
H323        H  0.84427045  0.55060380  0.95119326     0.08800
H324        H  0.77453305  0.58888781  0.91526008     0.07600
C325        C  0.83084451  0.91925858  0.83047875     0.87000
C326        C  0.85910475  0.92400770  0.83632387    -0.53200
C327        C  0.86790421  0.91321828  0.86816977     0.09900
C328        C  0.84739951  0.89881100  0.89192636     0.20900
C329        C  0.82711268  0.88358827  0.83698809    -0.53900
C330        C  0.83589390  0.87292382  0.86895908     0.10000
C331        C  0.81820330  0.93467963  0.86202883    -0.53500
C332        C  0.82676379  0.92411714  0.89409290     0.10600
H333        H  0.87139947  0.93370560  0.81601248     0.15100
H334        H  0.85419467  0.88998303  0.91801249     0.00900
H335        H  0.81996136  0.86726854  0.81769246     0.15400
H336        H  0.80348505  0.95222955  0.85925870     0.15200
C337        C  0.82043417  0.09232776  0.18537205     0.87000
C338        C  0.84885511  0.08893652  0.17910501    -0.53200
C339        C  0.85689356  0.09992807  0.14702135     0.09900
C340        C  0.83578185  0.11245781  0.12326771     0.20900
C341        C  0.81479292  0.12719478  0.17764163    -0.53900
C342        C  0.82293713  0.13787091  0.14541331     0.10000
C343        C  0.80854784  0.07485977  0.15406559    -0.53500
C344        C  0.81681465  0.08537227  0.12183252     0.10600
H345        H  0.86161840  0.07909665  0.19879046     0.15100
H346        H  0.84217630  0.12104854  0.09689352     0.00900
H347        H  0.80644219  0.14258516  0.19706570     0.15400
H348        H  0.79550470  0.05546301  0.15589899     0.15200
N349        N  0.80751831  0.96643419  0.97192536    -0.26800
N350        N  0.78581851  0.95475578  0.96114248    -0.34600
C351        C  0.78992382  0.93571464  0.93378671     0.01600
C352        C  0.81537818  0.93491189  0.92714748     0.07600
C353        C  0.82605203  0.95468746  0.95174632    -0.05500
H354        H  0.77525151  0.92531320  0.91796127     0.08300
H355        H  0.84541603  0.96232944  0.95264812     0.09500
Cu356      Cu  0.75071365  0.96916045  0.97788896     0.44200
Cu357      Cu  0.81014988  0.00218248  0.00888487     0.42000
Cu358      Cu  0.74959795  0.04022013  0.02396722     0.43900
N359        N  0.71763654  0.99245022  0.98919015    -0.34100
N360        N  0.71750698  0.02025115  0.00425257    -0.28400
C361        C  0.69373057  0.03039912  0.00719503    -0.04500
C362        C  0.67816224  0.00756037  0.99373171     0.07700
C363        C  0.69383123  0.98373932  0.98264752     0.01500
H364        H  0.68817020  0.05200408  0.01980439     0.09200
H365        H  0.68835712  0.96175691  0.97078882     0.08200
N366        N  0.78227550  0.05166357  0.04965134    -0.35600
N367        N  0.80443975  0.03846613  0.04446952    -0.27800
C368        C  0.82084781  0.05018038  0.06804314    -0.03000
C369        C  0.80816445  0.07143486  0.08883369     0.05600
C370        C  0.78382048  0.07153723  0.07675034     0.03700
H371        H  0.84002256  0.04226859  0.07136291     0.08800
H372        H  0.76804890  0.08393133  0.08796286     0.07600
O373        O  0.09980252  0.04370698  0.45885821    -0.72400
O374        O  0.09914154  0.01859214  0.56224317    -0.73400
O375        O  0.13707207  0.03092011  0.51056462    -0.62000
O376        O  0.06176465  0.03228623  0.51008883    -0.70400
O377        O  0.06088887  0.98174102  0.49613445    -0.70000
O378        O  0.13650936  0.98009891  0.49777863    -0.61200
O379        O  0.09796943  0.96840099  0.54732099    -0.73700
O380        O  0.09947494  0.99330484  0.44489611    -0.72500
Cu381      Cu  0.09946419  0.03314195  0.51095166     1.04600
Cu382      Cu  0.09870508  0.97917740  0.49589903     1.04300
C383        C  0.09983949  0.02230746  0.43544508     0.93800
C384        C  0.09831601  0.98941251  0.57107283     0.92900
C385        C  0.14861693  0.00523966  0.50468789     0.85100
C386        C  0.04946152  0.00727691  0.50339972     0.91300
O387        O  0.77258993  0.03746095  0.51851914    -0.72400
O388        O  0.84785371  0.03696158  0.51622564    -0.73400
O389        O  0.80905780  0.04917362  0.46629006    -0.62000
O390        O  0.81101666  0.02451713  0.56915342    -0.70400
O391        O  0.81189510  0.97434146  0.55413131    -0.70000
O392        O  0.80762647  0.99887598  0.45187813    -0.61200
O393        O  0.84753681  0.98702813  0.50035210    -0.73700
O394        O  0.77212033  0.98650044  0.50636502    -0.72500
Cu395      Cu  0.81017282  0.03877232  0.51809766     1.04600
Cu396      Cu  0.80978880  0.98493387  0.50266846     1.04300
C397        C  0.76054007  0.01209387  0.51281270     0.93800
C398        C  0.85969112  0.01207026  0.50769849     0.92900
C399        C  0.80768025  0.02792681  0.44279181     0.85100
C400        C  0.81190830  0.99535820  0.57788698     0.91300
C401        C  0.08765562  0.59289425  0.81812642     0.87000
C402        C  0.05935450  0.59019007  0.82577905    -0.53200
C403        C  0.05268383  0.59806719  0.85939560     0.09900
C404        C  0.07485689  0.60755291  0.88278393     0.20900
C405        C  0.09404190  0.62709844  0.82832004    -0.53900
C406        C  0.08728652  0.63465327  0.86191618     0.10000
C407        C  0.10040495  0.57270561  0.84697609    -0.53500
C408        C  0.09346784  0.58001173  0.88062772     0.10600
H409        H  0.04567188  0.58351197  0.80590886     0.15100
H410        H  0.06946267  0.61392325  0.91013286     0.00900
H411        H  0.10186655  0.64493000  0.81079325     0.15400
H412        H  0.11359784  0.55399449  0.84125885     0.15200
C413        C  0.07446509  0.41874907  0.17698615     0.87000
C414        C  0.04739845  0.42338453  0.16302538    -0.53200
C415        C  0.04282230  0.41006170  0.13109161     0.09900
C416        C  0.06550267  0.39301270  0.11561202     0.20900
C417        C  0.07793496  0.38277682  0.17676828    -0.53900
C418        C  0.07307553  0.36910036  0.14482006     0.10000
C419        C  0.09127850  0.43109102  0.14690777    -0.53500
C420        C  0.08647387  0.41792601  0.11487521     0.10600
H421        H  0.03223086  0.43410883  0.17733006     0.15100
H422        H  0.06158802  0.38247905  0.08947193     0.00900
H423        H  0.08347052  0.36935293  0.20014297     0.15400
H424        H  0.10516076  0.44951286  0.15038797     0.15200
N425        N  0.10712571  0.45945151  0.03533803    -0.26800
N426        N  0.12850047  0.44641733  0.04600655    -0.34600
C427        C  0.12408614  0.42825012  0.07476274     0.01600
C428        C  0.09875984  0.42924962  0.08221572     0.07600
C429        C  0.08855402  0.44931631  0.05687289    -0.05500
H430        H  0.13851387  0.41639772  0.09020016     0.08300
H431        H  0.06937581  0.45766705  0.05572348     0.09500
Cu432      Cu  0.16373865  0.45602597  0.02485969     0.44200
Cu433      Cu  0.10422489  0.49404947  0.99530487     0.42000
Cu434      Cu  0.16422676  0.52340832  0.96830246     0.43900
N435        N  0.19667576  0.47594301  0.00552058    -0.34100
N436        N  0.19642536  0.50230225  0.98660936    -0.28400
C437        C  0.22005410  0.51164395  0.98031491    -0.04500
C438        C  0.23602368  0.48977931  0.99534688     0.07700
C439        C  0.22071473  0.46732643  0.01112578     0.01500
H440        H  0.22520932  0.53266193  0.96539844     0.09200
H441        H  0.22659268  0.44692026  0.02660254     0.08200
N442        N  0.13117386  0.53924788  0.94655326    -0.35600
N443        N  0.10868464  0.52929750  0.95635338    -0.27800
C444        C  0.09135793  0.54372037  0.93562650    -0.03000
C445        C  0.10383740  0.56322088  0.91168504     0.05600
C446        C  0.12896633  0.55953585  0.91922913     0.03700
H447        H  0.07144154  0.53905147  0.93654445     0.08800
H448        H  0.14460231  0.57007242  0.90515364     0.07600
C449        C  0.08691241  0.91164107  0.82549382     0.87000
C450        C  0.09895807  0.93146076  0.85456361    -0.53200
C451        C  0.09308859  0.92169178  0.88805179     0.09900
C452        C  0.07588018  0.89272438  0.88985972     0.20900
C453        C  0.09520590  0.87758954  0.83431732    -0.53900
C454        C  0.08937269  0.86744133  0.86797018     0.10000
C455        C  0.05867689  0.91135816  0.83380478    -0.53500
C456        C  0.05300128  0.90179170  0.86733049     0.10600
H457        H  0.11110197  0.95147791  0.84912744     0.15100
H458        H  0.07124916  0.88553436  0.91739248     0.00900
H459        H  0.10306291  0.86175220  0.81524505     0.15400
H460        H  0.04428950  0.91794258  0.81467919     0.15200
C461        C  0.07204622  0.08495910  0.17915866     0.87000
C462        C  0.08842363  0.07030554  0.15051615    -0.53200
C463        C  0.08378972  0.08163448  0.11721596     0.09900
C464        C  0.06340950  0.10728725  0.11529471     0.20900
C465        C  0.07616877  0.12061471  0.17496951    -0.53900
C466        C  0.07206591  0.13268297  0.14157167     0.10000
C467        C  0.04484101  0.08035228  0.16615009    -0.53500
C468        C  0.04037180  0.09210780  0.13300063     0.10600
H469        H  0.10219087  0.05202766  0.15602393     0.15100
H470        H  0.05989340  0.11586505  0.08792711     0.00900
H471        H  0.08120453  0.13509227  0.19727189     0.15400
H472        H  0.02950808  0.07144867  0.18218777     0.15200
N473        N  0.10873808  0.96837721  0.96504000    -0.26800
N474        N  0.13095500  0.95661121  0.95687240    -0.34600
C475        C  0.12849734  0.93764264  0.92899370     0.01600
C476        C  0.10353582  0.93690128  0.91947492     0.07600
C477        C  0.09142081  0.95658485  0.94276581    -0.05500
H478        H  0.14389282  0.92594281  0.91598584     0.08300
H479        H  0.07177778  0.96308188  0.94238829     0.09500
Cu480      Cu  0.16434509  0.96826424  0.98132715     0.44200
Cu481      Cu  0.10393980  0.00272936  0.00344031     0.42000
Cu482      Cu  0.16279236  0.03461108  0.03782061     0.43900
N483        N  0.19634742  0.98779343  0.00278929    -0.34100
N484        N  0.19593701  0.01370823  0.02164156    -0.28400
C485        C  0.21968708  0.02240118  0.02878354    -0.04500
C486        C  0.23565921  0.00048234  0.01427563     0.07700
C487        C  0.22030330  0.97879261  0.99812550     0.01500
H488        H  0.22490590  0.04284238  0.04383745     0.09200
H489        H  0.22610907  0.95863059  0.98302717     0.08200
N490        N  0.12743827  0.04833541  0.05462196    -0.35600
N491        N  0.10598976  0.03741006  0.04198166    -0.27800
C492        C  0.08690193  0.04976126  0.06061413    -0.03000
C493        C  0.09690263  0.06909225  0.08621169     0.05600
C494        C  0.12258799  0.06735468  0.08185588     0.03700
H495        H  0.06738245  0.04326634  0.05757662     0.08800
H496        H  0.13676457  0.07779139  0.09848852     0.07600
C497        C  0.06363677  0.28142001  0.16163553    -0.27700
C498        C  0.07302915  0.26843288  0.13048490     0.05900
C499        C  0.08155497  0.28861573  0.10331768     0.25600
C500        C  0.08142704  0.32133846  0.10798583    -0.12200
C501        C  0.07279873  0.33435303  0.13975718    -0.26100
C502        C  0.06333083  0.31394005  0.16626654     0.36400
C503        C  0.07538638  0.23380125  0.12830794     0.05900
F504        F  0.09085053  0.27664779  0.07295377    -0.19900
H505        H  0.08868450  0.33648244  0.08706100     0.15800
F506        F  0.05325835  0.32531152  0.19643798    -0.23600
H507        H  0.05668331  0.26614533  0.18269686     0.17600
C508        C  0.09176341  0.21792178  0.15142743     0.25600
C509        C  0.09162230  0.18515095  0.15366207    -0.12100
C510        C  0.07474575  0.16722536  0.13346704    -0.26200
C511        C  0.05965876  0.18323071  0.10814344     0.36500
C512        C  0.05996593  0.21626501  0.10583509    -0.27800
F513        F  0.10745563  0.23428965  0.17269363    -0.19900
H514        H  0.10446578  0.17387499  0.17210478     0.15800
F515        F  0.04370013  0.16753463  0.08674320    -0.23600
H516        H  0.04733832  0.22822919  0.08756016     0.17600
C517        C  0.06921572  0.71965771  0.87300115    -0.27700
C518        C  0.09165056  0.73276303  0.88571018     0.05900
C519        C  0.11193064  0.71265983  0.89386397     0.25600
C520        C  0.11006764  0.68028323  0.88775359    -0.12200
C521        C  0.08793733  0.66758188  0.87379070    -0.26100
C522        C  0.06738737  0.68741393  0.86694894     0.36400
C523        C  0.09398821  0.76752943  0.88742943     0.05900
F524        F  0.13361895  0.72437437  0.90719902    -0.19900
H525        H  0.12609444  0.66527659  0.89289677     0.15800
F526        F  0.04600775  0.67590709  0.85255983    -0.23600
H527        H  0.05346595  0.73463133  0.86617859     0.17600
C528        C  0.11327951  0.78343969  0.86918836     0.25600
C529        C  0.11266308  0.81619622  0.86540564    -0.12100
C530        C  0.09268277  0.83382836  0.87925879    -0.26200
C531        C  0.07453474  0.81801711  0.90006311     0.36500
C532        C  0.07513830  0.78522372  0.90373002    -0.27800
F533        F  0.13164595  0.76724374  0.85255192    -0.19900
H534        H  0.12731177  0.82763342  0.85011563     0.15800
F535        F  0.05515294  0.83359893  0.91495848    -0.23600
H536        H  0.06022114  0.77345291  0.91817140     0.17600
C537        C  0.09764358  0.06994177  0.34930410    -0.27700
C538        C  0.09582561  0.04600933  0.32429560     0.05900
C539        C  0.09726553  0.01450027  0.33566094     0.25600
C540        C  0.09927492  0.00705063  0.37170179    -0.12200
C541        C  0.09985254  0.03089580  0.39715566    -0.26100
C542        C  0.09962404  0.06257231  0.38543373     0.36400
C543        C  0.09046732  0.05403088  0.28683693     0.05900
F544        F  0.09640700  0.99092347  0.31186778    -0.19900
H545        H  0.09983654  0.98254701  0.37966117     0.15800
F546        F  0.10067512  0.08650574  0.40875156    -0.23600
H547        H  0.09664242  0.09432213  0.34091790     0.17600
C548        C  0.06751691  0.04529629  0.27162827     0.25600
C549        C  0.06164472  0.05442766  0.23693508    -0.12100
C550        C  0.07851494  0.07272168  0.21646844    -0.26200
C551        C  0.10213564  0.07994836  0.23150305     0.36500
C552        C  0.10779160  0.07117450  0.26647070    -0.27800
F553        F  0.05040225  0.02861526  0.29077411    -0.19900
H554        H  0.04382434  0.04669162  0.22668297     0.15800
F555        F  0.11964849  0.09609249  0.21252181    -0.23600
H556        H  0.12573924  0.07776016  0.27770712     0.17600
C557        C  0.10331922  0.98969375  0.67151928    -0.27700
C558        C  0.09706358  0.95839817  0.68015261     0.05900
C559        C  0.09055987  0.93783979  0.65281810     0.25600
C560        C  0.09104368  0.94820799  0.61762238    -0.12200
C561        C  0.09764215  0.97939260  0.60880867    -0.26100
C562        C  0.10359810  0.00019039  0.63623681     0.36400
C563        C  0.09663852  0.94753572  0.71764820     0.05900
F564        F  0.08302839  0.90793495  0.66015077    -0.19900
H565        H  0.08594123  0.93176199  0.59721127     0.15800
F566        F  0.11012075  0.03047249  0.62906459    -0.23600
H567        H  0.10827976  0.00597299  0.69216719     0.17600
C568        C  0.10866217  0.91953755  0.72831316     0.25600
C569        C  0.10640656  0.90823950  0.76310458    -0.12100
C570        C  0.09212074  0.92466828  0.78822312    -0.26200
C571        C  0.08180750  0.95403807  0.77790215     0.36500
C572        C  0.08380819  0.96504127  0.74300854    -0.27800
F573        F  0.12286221  0.90318672  0.70514145    -0.19900
H574        H  0.11609632  0.88678746  0.76974847     0.15800
F575        F  0.06896053  0.97171937  0.80137970    -0.23600
H576        H  0.07473613  0.98694915  0.73558069     0.17600
C577        C  0.92783021  0.03931518  0.51006390    -0.27700
C578        C  0.94083726  0.01080869  0.50622350     0.05900
C579        C  0.92690798  0.98289430  0.50251958     0.25600
C580        C  0.90064939  0.98358262  0.50278075    -0.12200
C581        C  0.88759932  0.01205270  0.50671583    -0.26100
C582        C  0.90154591  0.04006253  0.51012617     0.36400
C583        C  0.96881008  0.01030440  0.50587740     0.05900
F584        F  0.93863976  0.95493536  0.49784623    -0.19900
H585        H  0.89053856  0.96168269  0.49998535     0.15800
F586        F  0.88991101  0.06827833  0.51331100    -0.23600
H587        H  0.93803533  0.06108500  0.51335639     0.17600
C588        C  0.98255409  0.03216964  0.48526771     0.25600
C589        C  0.00881737  0.03119181  0.48486369    -0.12100
C590        C  0.02182370  0.00803880  0.50426052    -0.26200
C591        C  0.00827035  0.98627090  0.52497989     0.36500
C592        C  0.98201753  0.98763586  0.52603235    -0.27800
F593        F  0.97063532  0.05389509  0.46464591    -0.19900
H594        H  0.01902518  0.04812199  0.46877520     0.15800
F595        F  0.02045080  0.96435263  0.54505257    -0.23600
H596        H  0.97200552  0.97107300  0.54280782     0.17600
C597        C  0.97369314  0.07282871  0.10828336    -0.27700
C598        C  0.96216896  0.10209595  0.11338808     0.05900
C599        C  0.97714703  0.12871674  0.11932916     0.25600
C600        C  0.00308332  0.12557928  0.12288054    -0.12200
C601        C  0.01444839  0.09602430  0.12013295    -0.26100
C602        C  0.99971826  0.06970805  0.11197343     0.36400
C603        C  0.93492173  0.10351550  0.11993875     0.05900
F604        F  0.96644500  0.15725861  0.12451771    -0.19900
H605        H  0.01398407  0.14577643  0.13082525     0.15800
F606        F  0.01027429  0.04072429  0.11027596    -0.23600
H607        H  0.96236480  0.05197739  0.10434937     0.17600
C608        C  0.91726502  0.09316570  0.09502065     0.25600
C609        C  0.89170375  0.09248612  0.10366482    -0.12100
C610        C  0.88367718  0.10162392  0.13735287    -0.26200
C611        C  0.90135580  0.11268456  0.16181910     0.36500
C612        C  0.92669943  0.11350030  0.15313859    -0.27800
F613        F  0.92473787  0.08380503  0.06253594    -0.19900
H614        H  0.87826699  0.08416083  0.08441266     0.15800
F615        F  0.89412827  0.12312771  0.19399875    -0.23600
H616        H  0.94007972  0.12135631  0.17274930     0.17600
C617        C  0.80805806  0.02466740  0.34241684    -0.27700
C618        C  0.80524112  0.05657236  0.33326490     0.05900
C619        C  0.80198378  0.07863619  0.36017537     0.25600
C620        C  0.80254894  0.06902702  0.39559892    -0.12200
C621        C  0.80617015  0.03723215  0.40495986    -0.26100
C622        C  0.80854245  0.01496744  0.37789150     0.36400
C623        C  0.80720213  0.06677973  0.29580656     0.05900
F624        F  0.79823480  0.10952001  0.35222252    -0.19900
H625        H  0.80025288  0.08663501  0.41575072     0.15800
F626        F  0.81204913  0.98398118  0.38551564    -0.23600
H627        H  0.81067816  0.00732709  0.32203113     0.17600
C628        C  0.82423527  0.09041032  0.28582543     0.25600
C629        C  0.82711718  0.09870504  0.25035942    -0.12100
C630        C  0.81375270  0.08317919  0.22350650    -0.26200
C631        C  0.79591760  0.06009314  0.23383652     0.36500
C632        C  0.79293385  0.05199351  0.26963003    -0.27800
F633        F  0.83907614  0.10448308  0.31017263    -0.19900
H634        H  0.84069279  0.11681134  0.24361890     0.15800
F635        F  0.78099608  0.04533953  0.21032684    -0.23600
H636        H  0.77943638  0.03399168  0.27697993     0.17600
C637        C  0.93185221  0.91152600  0.91310610    -0.27700
C638        C  0.94710082  0.90149618  0.88514883     0.05900
C639        C  0.93613436  0.89515862  0.85224467     0.25600
C640        C  0.91047760  0.89901101  0.84729313    -0.12200
C641        C  0.89512991  0.90947360  0.87487927    -0.26100
C642        C  0.90591300  0.91529742  0.90812255     0.36400
C643        C  0.97464349  0.89950531  0.88882079     0.05900
F644        F  0.95040760  0.88629105  0.82438676    -0.19900
H645        H  0.90257493  0.89361967  0.82167621     0.15800
F646        F  0.89160909  0.92555295  0.93528399    -0.23600
H647        H  0.94008871  0.91665190  0.93859632     0.17600
C648        C  0.98874188  0.92656302  0.89632089     0.25600
C649        C  0.01477422  0.92647086  0.89167847    -0.12100
C650        C  0.02688464  0.89952618  0.87940767    -0.26200
C651        C  0.01301307  0.87204966  0.87349484     0.36500
C652        C  0.98709218  0.87194727  0.87873102    -0.27800
F653        F  0.97713830  0.95380649  0.90492953    -0.19900
H654        H  0.02530120  0.94796431  0.89555078     0.15800
F655        F  0.02417970  0.84619121  0.85996657    -0.23600
H656        H  0.97646257  0.85098931  0.87255283     0.17600
C657        C  0.82563798  0.97551924  0.75095194    -0.27700
C658        C  0.81437078  0.95659877  0.72530449     0.05900
C659        C  0.80523334  0.92679271  0.73550146     0.25600
C660        C  0.80919207  0.91519896  0.76976867    -0.12200
C661        C  0.82239188  0.93301710  0.79483585    -0.26100
C662        C  0.82913771  0.96419570  0.78548445     0.36400
C663        C  0.81353840  0.96703827  0.68767243     0.05900
F664        F  0.79264994  0.90860463  0.71215748    -0.19900
H665        H  0.80186188  0.89212682  0.77595914     0.15800
F666        F  0.84046471  0.98318840  0.80928018    -0.23600
H667        H  0.83273450  0.99867321  0.74396236     0.17600
C668        C  0.80631775  0.99777657  0.67777052     0.25600
C669        C  0.80614795  0.00700717  0.64208569    -0.12100
C670        C  0.81282810  0.98569619  0.61562827    -0.26200
C671        C  0.82005943  0.95497435  0.62562797     0.36500
C672        C  0.82066921  0.94600198  0.66122232    -0.27800
F673        F  0.79879201  0.01864726  0.70240765    -0.19900
H674        H  0.80033013  0.03068956  0.63512767     0.15800
F675        F  0.82691285  0.93357856  0.60115458    -0.23600
H676        H  0.82697879  0.92250829  0.66813283     0.17600
C677        C  0.92802494  0.38552220  0.13510726    -0.27700
C678        C  0.93749955  0.40560621  0.10848774     0.05900
C679        C  0.92080651  0.42545482  0.08975305     0.25600
C680        C  0.89531633  0.42613215  0.09891274    -0.12200
C681        C  0.88640453  0.40730888  0.12693518    -0.26100
C682        C  0.90273987  0.38641772  0.14436040     0.36400
C683        C  0.96508173  0.40783298  0.10407762     0.05900
F684        F  0.92922884  0.44456607  0.06325554    -0.19900
H685        H  0.88273079  0.44212455  0.08506034     0.15800
F686        F  0.89432099  0.36751627  0.17104652    -0.23600
H687        H  0.94051033  0.37017912  0.15006031     0.17600
C688        C  0.97735754  0.43678042  0.10878395     0.25600
C689        C  0.00323500  0.43756801  0.11460953    -0.12100
C690        C  0.01725894  0.40964666  0.11582969    -0.26200
C691        C  0.00543123  0.38102948  0.10806863     0.36500
C692        C  0.97950449  0.38020881  0.10222687    -0.27800
F693        F  0.96410614  0.46388978  0.11154332    -0.19900
H694        H  0.01210587  0.45981162  0.12054275     0.15800
F695        F  0.01833396  0.35353276  0.10977197    -0.23600
H696        H  0.97039092  0.35768352  0.09875519     0.17600
C697        C  0.80268980  0.22306915  0.13777375    -0.27700
C698        C  0.82525927  0.23768421  0.12790828     0.05900
C699        C  0.84637108  0.21910716  0.12054185     0.25600
C700        C  0.84499596  0.18631554  0.12401638    -0.12200
C701        C  0.82277249  0.17177489  0.13578168    -0.26100
C702        C  0.80143905  0.19039194  0.14195822     0.36400
C703        C  0.82737066  0.27219310  0.13026107     0.05900
F704        F  0.86852927  0.23277462  0.11146143    -0.19900
H705        H  0.86172782  0.17244794  0.11955337     0.15800
F706        F  0.77960536  0.17705888  0.15302888    -0.23600
H707        H  0.78636136  0.23715105  0.14392324     0.17600
C708        C  0.81612941  0.29235871  0.10507125     0.25600
C709        C  0.81656440  0.32504258  0.10982523    -0.12100
C710        C  0.82752531  0.33774590  0.14025760    -0.26200
C711        C  0.83906196  0.31739880  0.16510260     0.36500
C712        C  0.83909194  0.28498537  0.15993165    -0.27800
F713        F  0.80452895  0.28037541  0.07626006    -0.19900
H714        H  0.80771323  0.34037148  0.09033447     0.15800
F715        F  0.85044155  0.32886287  0.19437182    -0.23600
H716        H  0.84771317  0.26967462  0.17965946     0.17600
C717        C  0.93742569  0.57183717  0.88628668    -0.27700
C718        C  0.94824721  0.60081413  0.89477338     0.05900
C719        C  0.93272992  0.62692876  0.90049509     0.25600
C720        C  0.90676066  0.62434344  0.89571315    -0.12200
C721        C  0.89613556  0.59592598  0.88437966    -0.26100
C722        C  0.91158986  0.56937514  0.88085863     0.36400
C723        C  0.97551085  0.60455519  0.89017172     0.05900
F724        F  0.94283518  0.65524810  0.90863459    -0.19900
H725        H  0.89523727  0.64513510  0.89839488     0.15800
F726        F  0.90189244  0.54142061  0.87061764    -0.23600
H727        H  0.94922727  0.55163485  0.88137922     0.17600
C728        C  0.99267824  0.58819796  0.91185501     0.25600
C729        C  0.01808278  0.58696150  0.90241190    -0.12100
C730        C  0.02629149  0.60109578  0.87069303    -0.26200
C731        C  0.00917727  0.61831973  0.84975486     0.36500
C732        C  0.98408355  0.62033891  0.85974713    -0.27800
F733        F  0.98468543  0.57265203  0.94135584    -0.19900
H734        H  0.03110935  0.57387788  0.91897555     0.15800
F735        F  0.01662414  0.63281644  0.81931431    -0.23600
H736        H  0.97097709  0.63271939  0.84257514     0.17600
C737        C  0.82751326  0.71861376  0.90194739    -0.27700
C738        C  0.84233891  0.73810000  0.88009620     0.05900
C739        C  0.85765969  0.72438384  0.85428442     0.25600
C740        C  0.85718424  0.69186522  0.84943335    -0.12200
C741        C  0.84185745  0.67254063  0.87065635    -0.26100
C742        C  0.82746583  0.68597964  0.89755014     0.36400
C743        C  0.84021951  0.77273489  0.88213906     0.05900
F744        F  0.87214266  0.74256451  0.83266627    -0.19900
H745        H  0.86859199  0.68171170  0.82880626     0.15800
F746        F  0.81249952  0.66771860  0.91838063    -0.23600
H747        H  0.81562743  0.72880264  0.92199756     0.17600
C748        C  0.81699991  0.78748212  0.87579138     0.25600
C749        C  0.81551751  0.82024324  0.87324524    -0.12100
C750        C  0.83703971  0.83885538  0.87756581    -0.26200
C751        C  0.86005232  0.82419362  0.88574489     0.36500
C752        C  0.86162055  0.79133918  0.88768024    -0.27800
F753        F  0.79603996  0.77013412  0.86990504    -0.19900
H754        H  0.79768093  0.83111434  0.86678126     0.15800
F755        F  0.88132513  0.84137976  0.88951320    -0.23600
H756        H  0.87965123  0.78035293  0.89259153     0.17600
C757        C  0.81752872  0.49236654  0.33746120    -0.27700
C758        C  0.81408503  0.46064992  0.32874333     0.05900
C759        C  0.80987900  0.43858822  0.35623641     0.25600
C760        C  0.80990575  0.44798032  0.39159993    -0.12200
C761        C  0.81387627  0.47962517  0.40049186    -0.26100
C762        C  0.81734743  0.50185724  0.37282691     0.36400
C763        C  0.81641187  0.45038199  0.29133938     0.05900
F764        F  0.80550134  0.40790848  0.34888099    -0.19900
H765        H  0.80674879  0.43036059  0.41207550     0.15800
F766        F  0.82112456  0.53272083  0.37980272    -0.23600
H767        H  0.82104197  0.50977097  0.31686346     0.17600
C768        C  0.80342704  0.46564831  0.26353922     0.25600
C769        C  0.80642125  0.45586951  0.22847349    -0.12100
C770        C  0.82259469  0.43074042  0.22019703    -0.26200
C771        C  0.83555411  0.41569056  0.24837516     0.36500
C772        C  0.83244530  0.42538073  0.28322339    -0.27800
F773        F  0.78750024  0.48972802  0.27031029    -0.19900
H774        H  0.79597271  0.46839019  0.20819359     0.15800
F775        F  0.85156450  0.39155235  0.24215893    -0.23600
H776        H  0.84303724  0.41355015  0.30400666     0.17600
C777        C  0.80695646  0.55072219  0.74607686    -0.27700
C778        C  0.82313963  0.56176140  0.71945081     0.05900
C779        C  0.84265607  0.58230339  0.72871226     0.25600
C780        C  0.84597388  0.59115925  0.76387701    -0.12200
C781        C  0.83008785  0.57987364  0.79110929    -0.26100
C782        C  0.81014859  0.55957243  0.78135915     0.36400
C783        C  0.81951284  0.55188606  0.68215499     0.05900
F784        F  0.85897761  0.59328343  0.70390697    -0.19900
H785        H  0.86129362  0.60693629  0.76999825     0.15800
F786        F  0.79312595  0.54836784  0.80482082    -0.23600
H787        H  0.79145920  0.53542209  0.73943448     0.17600
C788        C  0.81693551  0.51993338  0.67359030     0.25600
C789        C  0.81438265  0.51089427  0.63826280    -0.12100
C790        C  0.81427875  0.53345010  0.61065726    -0.26200
C791        C  0.81626516  0.56553684  0.61945049     0.36500
C792        C  0.81885666  0.57449036  0.65474215    -0.27800
F793        F  0.81779707  0.49731836  0.69927413    -0.19900
H794        H  0.81291378  0.48606876  0.63250797     0.15800
F795        F  0.81610429  0.58842259  0.59404134    -0.27600
H796        H  0.82037329  0.59927966  0.66069050     0.17600
C797        C  0.10905722  0.43957443  0.26325925    -0.27700
C798        C  0.09137648  0.45823285  0.28076184     0.05900
C799        C  0.06874106  0.46556929  0.26363324     0.25600
C800        C  0.06348673  0.45369782  0.23021209    -0.12200
C801        C  0.08054337  0.43365718  0.21285880    -0.26100
C802        C  0.10388230  0.42772861  0.22954980     0.36400
C803        C  0.09581720  0.46898871  0.31741669     0.05900
F804        F  0.05116080  0.48346158  0.27977777    -0.19900
H805        H  0.04601661  0.46087719  0.21863464     0.15800
F806        F  0.12163202  0.41009824  0.21344039    -0.23600
H807        H  0.12681018  0.43408476  0.27577392     0.17600
C808        C  0.10038515  0.44708537  0.34481731     0.25600
C809        C  0.10185139  0.45691253  0.37988673    -0.12100
C810        C  0.09886739  0.48879832  0.38846619    -0.26200
C811        C  0.09485294  0.51086590  0.36082524     0.36500
C812        C  0.09334083  0.50095005  0.32571555    -0.27800
F813        F  0.10224993  0.41594424  0.33787966    -0.19900
H814        H  0.10503423  0.43936281  0.40041709     0.15800
F815        F  0.09169166  0.54187332  0.36762186    -0.23600
H816        H  0.08979602  0.51818669  0.30496962     0.17600
C817        C  0.09479971  0.57599192  0.64506704    -0.27700
C818        C  0.10318753  0.55473674  0.67134693     0.05900
C819        C  0.11292277  0.52551979  0.66087296     0.25600
C820        C  0.11380574  0.51779130  0.62495698    -0.12200
C821        C  0.10541931  0.53917110  0.59874017    -0.26100
C822        C  0.09623460  0.56862982  0.60925383     0.36400
C823        C  0.10143916  0.56348618  0.70932128     0.05900
F824        F  0.12201760  0.50467053  0.68521080    -0.19900
H825        H  0.12119210  0.49507533  0.61764164     0.15800
F826        F  0.08788521  0.59011359  0.58507434    -0.23600
H827        H  0.08673112  0.59836485  0.65228103     0.17600
C828        C  0.10855331  0.59367984  0.72021576     0.25600
C829        C  0.10489520  0.60297682  0.75509285    -0.12100
C830        C  0.09401332  0.58250097  0.78044162    -0.26200
C831        C  0.08799855  0.55165226  0.76974603     0.36500
C832        C  0.09154281  0.54242049  0.73465455    -0.27800
F833        F  0.11917969  0.61441447  0.69705039    -0.19900
H834        H  0.11061097  0.62662007  0.76135703     0.15800
F835        F  0.07803413  0.53057072  0.79312289    -0.23600
H836        H  0.08576454  0.51901724  0.72706133     0.17600
C837        C  0.98377633  0.53474624  0.48656704    -0.27700
C838        C  0.97217508  0.51191741  0.50829841     0.05900
C839        C  0.98731213  0.49012550  0.52679569     0.25600
C840        C  0.01346249  0.49108477  0.52335178    -0.12200
C841        C  0.02511345  0.51384838  0.50154305    -0.26100
C842        C  0.00995475  0.53578948  0.48318019     0.36400
C843        C  0.94432160  0.51030595  0.51039653     0.05900
F844        F  0.97685613  0.46818778  0.54867153    -0.19900
H845        H  0.02460733  0.47412592  0.53801356     0.15800
F846        F  0.02029190  0.55764897  0.46109241    -0.23600
H847        H  0.97251382  0.55137593  0.47160224     0.17600
C848        C  0.92997692  0.53733269  0.51713894     0.25600
C849        C  0.90370871  0.53596060  0.51644348    -0.12100
C850        C  0.89122208  0.50754198  0.50957142    -0.26200
C851        C  0.90557812  0.48025973  0.50409850     0.36500
C852        C  0.93184403  0.48175341  0.50426892    -0.27800
F853        F  0.94136134  0.56499320  0.52479833    -0.19900
H854        H  0.89311996  0.55710830  0.52146518     0.15800
F855        F  0.89429541  0.45237343  0.49720588    -0.23600
H856        H  0.94244655  0.46073336  0.49872319     0.17600
C857        C  0.59450686  0.22145748  0.39718549    -0.27700
C858        C  0.59352575  0.24216124  0.36792841     0.05900
C859        C  0.59105718  0.22968645  0.33396366     0.25600
C860        C  0.58872759  0.19731817  0.32945625    -0.12200
C861        C  0.58957840  0.17620066  0.35853800    -0.26100
C862        C  0.59290785  0.18875347  0.39261555     0.36400
C863        C  0.59358037  0.27681106  0.37226969     0.05900
F864        F  0.58981330  0.24898498  0.30507373    -0.19900
H865        H  0.58556718  0.18902488  0.30289187     0.15800
F866        F  0.59523547  0.16967596  0.42147862    -0.23600
H867        H  0.59666813  0.23066366  0.42360242     0.17600
C868        C  0.57430223  0.29172840  0.39104467     0.25600
C869        C  0.57147865  0.32449148  0.38886270    -0.12100
C870        C  0.58771181  0.34283867  0.36775334    -0.26200
C871        C  0.60835690  0.32806083  0.35165500     0.36500
C872        C  0.61109012  0.29538031  0.35373156    -0.27800
F873        F  0.55710549  0.27444554  0.40930385    -0.19900
H874        H  0.55576772  0.33519405  0.40216837     0.15800
F875        F  0.62572225  0.34510578  0.33340616    -0.23600
H876        H  0.62639032  0.28437904  0.33971367     0.17600
C877        C  0.57088890  0.78743039  0.65376282    -0.27700
C878        C  0.58281634  0.77651678  0.62330587     0.05900
C879        C  0.59253908  0.79831820  0.59862961     0.25600
C880        C  0.59002439  0.83070425  0.60441235    -0.12200
C881        C  0.57836585  0.84159469  0.63522877    -0.26100
C882        C  0.56877655  0.81960244  0.65987257     0.36400
C883        C  0.58490719  0.74221604  0.61838208     0.05900
F884        F  0.60421070  0.78828894  0.56898290    -0.19900
H885        H  0.59753516  0.84731036  0.58513098     0.15800
F886        F  0.55676376  0.82918870  0.68945305    -0.23600
H887        H  0.56328123  0.77085107  0.67301187     0.17600
C888        C  0.60758674  0.72656039  0.62563381     0.25600
C889        C  0.60795756  0.69373849  0.62932663    -0.12100
C890        C  0.58583140  0.67613675  0.62514595    -0.26200
C891        C  0.56359534  0.69171668  0.61505822     0.36500
C892        C  0.56313547  0.72454610  0.61213013    -0.27800
F893        F  0.62890385  0.74313544  0.63176586    -0.19900
H894        H  0.62524820  0.68214935  0.63699455     0.15800
F895        F  0.54180610  0.67559060  0.61113237    -0.23600
H896        H  0.54549850  0.73632160  0.60680139     0.17600
C897        C  0.59707726  0.01923583  0.16352493    -0.27700
C898        C  0.60003519  0.05115708  0.17173214     0.05900
C899        C  0.60492643  0.07285647  0.14421079     0.25600
C900        C  0.60577125  0.06298276  0.10911943    -0.12200
C901        C  0.60198593  0.03119984  0.10057629    -0.26100
C902        C  0.59800666  0.00926345  0.12833245     0.36400
C903        C  0.59718847  0.06184800  0.20877718     0.05900
F904        F  0.60907845  0.10364131  0.15128785    -0.19900
H905        H  0.60932932  0.08037848  0.08856868     0.15800
F906        F  0.59428420  0.97835731  0.12153808    -0.23600
H907        H  0.59336900  0.00213606  0.18434214     0.17600
C908        C  0.57991398  0.08551108  0.21708925     0.25600
C909        C  0.57708661  0.09519249  0.25199911    -0.12100
C910        C  0.59111569  0.08148073  0.27995609    -0.26200
C911        C  0.60908980  0.05829011  0.27113303     0.36500
C912        C  0.61168408  0.04843564  0.23605957    -0.27800
F913        F  0.56524758  0.09878097  0.19153997    -0.19900
H914        H  0.56349488  0.11347971  0.25737313     0.15800
F915        F  0.62504291  0.04570486  0.29531455    -0.23600
H916        H  0.62550509  0.03058128  0.23002082     0.17600
C917        C  0.59765716  0.00024906  0.82690036    -0.27700
C918        C  0.60122713  0.96911971  0.81624363     0.05900
C919        C  0.60688807  0.94594153  0.84191284     0.25600
C920        C  0.60739883  0.95356001  0.87783929    -0.12200
C921        C  0.60258833  0.98448466  0.88875266    -0.26100
C922        C  0.59838127  0.00798125  0.86266759     0.36400
C923        C  0.59592388  0.96040132  0.77916590     0.05900
F924        F  0.61053478  0.91561830  0.83242689    -0.19900
H925        H  0.61110712  0.93509536  0.89715997     0.15800
F926        F  0.59398574  0.03828765  0.87158934    -0.23600
H927        H  0.59348872  0.01847336  0.80746404     0.17600
C928        C  0.57238901  0.96735146  0.76431641     0.25600
C929        C  0.56614887  0.95688186  0.73065054    -0.12100
C930        C  0.58313509  0.93877255  0.71083739    -0.26200
C931        C  0.60743799  0.93377297  0.72497030     0.36500
C932        C  0.61358161  0.94406392  0.75898374    -0.27800
F933        F  0.55489107  0.98329341  0.78300567    -0.19900
H934        H  0.54794909  0.96335407  0.72084728     0.15800
F935        F  0.62511195  0.91825645  0.70616993    -0.23600
H936        H  0.63201675  0.93907315  0.76968633     0.17600
C937        C  0.48282084  0.02364060  0.98039249    -0.27700
C938        C  0.47099026  0.00246751  0.00399217     0.05900
C939        C  0.48602516  0.98170369  0.02422407     0.25600
C940        C  0.51216657  0.98229780  0.02090775    -0.12200
C941        C  0.52396658  0.00398818  0.99798680    -0.26100
C942        C  0.50902256  0.02471674  0.97769676     0.36400
C943        C  0.44312114  0.00230414  0.00755398     0.05900
F944        F  0.47558288  0.96153759  0.04817229    -0.19900
H945        H  0.52323327  0.96630989  0.03705143     0.15800
F946        F  0.51965981  0.04564758  0.95477679    -0.23600
H947        H  0.47178074  0.03931208  0.96385956     0.17600
C948        C  0.42950913  0.03060977  0.00971122     0.25600
C949        C  0.40334318  0.03013632  0.01281954    -0.12100
C950        C  0.39014863  0.00151067  0.01440596    -0.26200
C951        C  0.40375207  0.97318275  0.01267985     0.36500
C952        C  0.42988351  0.97367417  0.00892190    -0.27800
F953        F  0.44147827  0.05880647  0.00959946    -0.19900
H954        H  0.39341906  0.05225226  0.01425523     0.15800
F955        F  0.39182872  0.94495409  0.01355064    -0.23600
H956        H  0.43972186  0.95159298  0.00655808     0.17600
C957        C  0.43228500  0.12319677  0.40389679    -0.27700
C958        C  0.44774315  0.09671493  0.40064686     0.05900
C959        C  0.43679407  0.06676502  0.39840704     0.25600
C960        C  0.41070801  0.06381008  0.39581908    -0.12200
C961        C  0.39531660  0.09063408  0.39588402    -0.26100
C962        C  0.40618969  0.12022280  0.40182130     0.36400
C963        C  0.47446803  0.10105088  0.39175319     0.05900
F964        F  0.45138512  0.04080124  0.39514856    -0.19900
H965        H  0.40262005  0.04083493  0.39137120     0.15800
F966        F  0.39193183  0.14665071  0.40160668    -0.23600
H967        H  0.44052652  0.14643455  0.40533537     0.17600
C968        C  0.48081357  0.11262048  0.35798188     0.25600
C969        C  0.50589806  0.11445381  0.34765066    -0.12100
C970        C  0.52513794  0.10513361  0.37093031    -0.26200
C971        C  0.51882546  0.09454694  0.40525554     0.36500
C972        C  0.49356645  0.09215228  0.41540773    -0.27800
F973        F  0.46259188  0.12101099  0.33451719    -0.19900
H974        H  0.51032832  0.12283524  0.32117228     0.15800
F975        F  0.53690355  0.08513269  0.42835053    -0.23600
H976        H  0.48887795  0.08300474  0.44146778     0.17600
C977        C  0.30309632  0.04797479  0.25563238    -0.27700
C978        C  0.32183297  0.05219313  0.22996232     0.05900
C979        C  0.34508584  0.06469881  0.24014423     0.25600
C980        C  0.34946091  0.07268726  0.27527407    -0.12200
C981        C  0.33111765  0.06764214  0.30168356    -0.26100
C982        C  0.30739413  0.05613073  0.29093136     0.36400
C983        C  0.31697212  0.04447723  0.19241896     0.05900
F984        F  0.36368620  0.06921952  0.21607292    -0.19900
H985        H  0.36726018  0.08352536  0.28155698     0.15800
F986        F  0.28771995  0.05451497  0.31355733    -0.23600
H987        H  0.28475292  0.03938576  0.24805523     0.17600
C988        C  0.30856481  0.01443051  0.18289036     0.25600
C989        C  0.30632780  0.00662034  0.14720882    -0.12100
C990        C  0.31210216  0.02869663  0.12034275    -0.26200
C991        C  0.31921326  0.05932772  0.13000673     0.36500
C992        C  0.32173475  0.06696296  0.16568061    -0.27800
F993        F  0.30358867  0.99218068  0.20801973    -0.19900
H994        H  0.30048527  0.98300023  0.14061823     0.15800
F995        F  0.32462272  0.08165038  0.10513402    -0.23600
H996        H  0.32776556  0.09046114  0.17248843     0.17600
C997        C  0.42143546  0.88344501  0.60853949    -0.27700
C998        C  0.43640932  0.90938396  0.61751330     0.05900
C999        C  0.42499799  0.93536958  0.63361984     0.25600
C1000       C  0.39953263  0.93465636  0.64197321    -0.12200
C1001       C  0.38498543  0.90780119  0.63545473    -0.26100
C1002       C  0.39601764  0.88240147  0.61777953     0.36400
C1003       C  0.46415496  0.90803685  0.61391339     0.05900
F1004       F  0.43874593  0.96057122  0.64381626    -0.19900
H1005       H  0.39143716  0.95472490  0.65501099     0.15800
F1006       F  0.38295012  0.85558938  0.61181835    -0.23600
H1007       H  0.42968986  0.86333713  0.59577374     0.17600
C1008       C  0.47760689  0.88162748  0.62664206     0.25600
C1009       C  0.50373926  0.88278392  0.62940438    -0.12100
C1010       C  0.51674371  0.91030864  0.62024142    -0.26200
C1011       C  0.50366529  0.93606509  0.60586441     0.36500
C1012       C  0.47759045  0.93466172  0.60204630    -0.27800
F1013       F  0.46546513  0.85581971  0.63949784    -0.19900
H1014       H  0.51369848  0.86298609  0.64127016     0.15800
F1015       F  0.51593899  0.96318604  0.59765521    -0.23600
H1016       H  0.46774405  0.95508682  0.59163294     0.17600
C1017       C  0.30106652  0.95098373  0.77951703    -0.27700
C1018       C  0.31956068  0.94229792  0.80421369     0.05900
C1019       C  0.33907549  0.92242582  0.79368425     0.25600
C1020       C  0.34027458  0.91206072  0.75891402    -0.12200
C1021       C  0.32244906  0.92170133  0.73327795    -0.26100
C1022       C  0.30216628  0.94058794  0.74456261     0.36400
C1023       C  0.31791704  0.95293905  0.84125675     0.05900
F1024       F  0.35734855  0.91355245  0.81684568    -0.19900
H1025       H  0.35562660  0.89674672  0.75172958     0.15800
F1026       F  0.28259403  0.94790872  0.72312855    -0.23600
H1027       H  0.28533650  0.96533567  0.78759254     0.17600
C1028       C  0.31588693  0.98503355  0.84916387     0.25600
C1029       C  0.31452831  0.99462802  0.88435725    -0.12100
C1030       C  0.31510382  0.97241751  0.91230269    -0.26200
C1031       C  0.31717014  0.94022973  0.90416931     0.36500
C1032       C  0.31851662  0.93074692  0.86903544    -0.27800
F1033       F  0.31584467  0.00714497  0.82290255    -0.19900
H1034       H  0.31313203  0.01951825  0.88969368     0.15800
F1035       F  0.31799119  0.91774693  0.93000887    -0.23600
H1036       H  0.31988504  0.90588532  0.86346156     0.17600
C1037       C  0.43302338  0.39155746  0.34756727    -0.27700
C1038       C  0.44147247  0.40007417  0.38118976     0.05900
C1039       C  0.42391448  0.40877686  0.40694274     0.25600
C1040       C  0.39821008  0.40917215  0.39880371    -0.12200
C1041       C  0.38980307  0.40131199  0.36478651    -0.26100
C1042       C  0.40753371  0.39202279  0.33935698     0.36400
C1043       C  0.46879718  0.40156672  0.38765236     0.05900
F1044       F  0.43163302  0.41671639  0.43984947    -0.19900
H1045       H  0.38494179  0.41621479  0.41885106     0.15800
F1046       F  0.40032194  0.38266655  0.30670811    -0.23600
H1047       H  0.44633550  0.38493845  0.32733379     0.17600
C1048       C  0.48395080  0.37513105  0.38154503     0.25600
C1049       C  0.51000457  0.37834172  0.37937355    -0.12100
C1050       C  0.52121443  0.40793562  0.38285201    -0.26200
C1051       C  0.50624496  0.43406597  0.39089700     0.36500
C1052       C  0.48018756  0.43076927  0.39371868    -0.27800
F1053       F  0.47339086  0.34670742  0.37512730    -0.19900
H1054       H  0.52116306  0.35826474  0.37187415     0.15800
F1055       F  0.51664426  0.46312774  0.39321057    -0.23600
H1056       H  0.46876267  0.45146972  0.39779128     0.17600
C1057       C  0.35301906  0.28230064  0.38812792    -0.27700
C1058       C  0.33154023  0.26376919  0.38289903     0.05900
C1059       C  0.30874050  0.27854382  0.37408773     0.25600
C1060       C  0.30790065  0.31116342  0.36843414    -0.12200
C1061       C  0.32964753  0.32960430  0.37212760    -0.26100
C1062       C  0.35209383  0.31498248  0.38313747     0.36400
C1063       C  0.33380750  0.22906915  0.38195305     0.05900
F1064       F  0.28771075  0.26120524  0.36865238    -0.19900
H1065       H  0.29042908  0.32195392  0.35999421     0.15800
F1066       F  0.37359459  0.33183199  0.38640988    -0.23600
H1067       H  0.37077464  0.27123810  0.39469358     0.17600
C1068       C  0.34787876  0.21519665  0.35496286     0.25600
C1069       C  0.34910091  0.18252536  0.35240033    -0.12100
C1070       C  0.33660184  0.16300421  0.37692119    -0.26200
C1071       C  0.32294391  0.17674847  0.40446168     0.36500
C1072       C  0.32133678  0.20964885  0.40668917    -0.27800
F1073       F  0.35977010  0.23334094  0.33034034    -0.19900
H1074       H  0.35979485  0.17235896  0.33104732     0.15800
F1075       F  0.31037008  0.15842828  0.42820456    -0.23600
H1076       H  0.31028722  0.22000173  0.42753974     0.17600
C1077       C  0.42968798  0.62182906  0.60169221    -0.27700
C1078       C  0.44571722  0.59624210  0.60796884     0.05900
C1079       C  0.43542764  0.56651207  0.61561419     0.25600
C1080       C  0.40952428  0.56317440  0.62004563    -0.12200
C1081       C  0.39353806  0.58932954  0.61646003    -0.26100
C1082       C  0.40373303  0.61833674  0.60517875     0.36400
C1083       C  0.47289360  0.60155472  0.61212423     0.05900
F1084       F  0.45056744  0.54132921  0.62171848    -0.19900
H1085       H  0.40206085  0.54045543  0.62800375     0.15800
F1086       F  0.38902687  0.64396964  0.60005118    -0.23600
H1087       H  0.43740317  0.64485826  0.59562974     0.17600
C1088       C  0.49049528  0.58640088  0.59063928     0.25600
C1089       C  0.51617816  0.58868454  0.59825776    -0.12100
C1090       C  0.52434680  0.60556305  0.62773230    -0.26200
C1091       C  0.50678588  0.62189867  0.64815254     0.36500
C1092       C  0.48126161  0.62000015  0.64024069    -0.27800
F1093       F  0.48276162  0.56897081  0.56287987    -0.19900
H1094       H  0.52957560  0.57625039  0.58213347     0.15800
F1095       F  0.51434939  0.63938384  0.67599071    -0.23600
H1096       H  0.46789670  0.63189195  0.65695153     0.17600
C1097       C  0.31433836  0.71104771  0.62564554    -0.27700
C1098       C  0.33528627  0.72809255  0.63774632     0.05900
C1099       C  0.35694596  0.71124914  0.64822167     0.25600
C1100       C  0.35692400  0.67837252  0.64884257    -0.12200
C1101       C  0.33588964  0.66153697  0.63742183    -0.26100
C1102       C  0.31470923  0.67803201  0.62517856     0.36400
C1103       C  0.33391535  0.76291770  0.64233383     0.05900
F1104       F  0.37814307  0.72656477  0.65812586    -0.19900
H1105       H  0.37335548  0.66593590  0.65871058     0.15800
F1106       F  0.29408557  0.66216415  0.61412060    -0.23600
H1107       H  0.29728976  0.72322259  0.61779049     0.17600
C1108       C  0.32349850  0.78318394  0.61631861     0.25600
C1109       C  0.32216778  0.81575933  0.62194950    -0.12100
C1110       C  0.33098135  0.82867458  0.65362504    -0.26200
C1111       C  0.34173723  0.80845214  0.67929984     0.36500
C1112       C  0.34286056  0.77609065  0.67382353    -0.27800
F1113       F  0.31499973  0.77166712  0.58523315    -0.19900
H1114       H  0.31399591  0.83083544  0.60174768     0.15800
F1115       F  0.35185183  0.81996239  0.70945233    -0.23600
H1116       H  0.35062126  0.76123677  0.69457290     0.17600
C1117       C  0.32130219  0.43262719  0.14795114    -0.27700
C1118       C  0.30988632  0.45171821  0.17324307     0.05900
C1119       C  0.29995763  0.48101879  0.16242011     0.25600
C1120       C  0.30140174  0.49077374  0.12689445    -0.12200
C1121       C  0.31262021  0.47143487  0.10156430    -0.26100
C1122       C  0.32264165  0.44221453  0.11256800     0.36400
C1123       C  0.30995170  0.44140996  0.21095900     0.05900
F1124       F  0.28844226  0.49992671  0.18601700    -0.19900
H1125       H  0.29334434  0.51319519  0.11910163     0.15800
F1126       F  0.33425567  0.42304060  0.08931693    -0.23600
H1127       H  0.32969785  0.41039574  0.15574359     0.17600
C1128       C  0.30306004  0.41057262  0.22081182     0.25600
C1129       C  0.30671942  0.39961930  0.25552950    -0.12100
C1130       C  0.31752228  0.41914673  0.28131428    -0.26200
C1131       C  0.32276041  0.45073044  0.27167690     0.36500
C1132       C  0.31913883  0.46155844  0.23697258    -0.27800
F1133       F  0.29319473  0.39072041  0.19664102    -0.19900
H1134       H  0.30157587  0.37569912  0.26120467     0.15800
F1135       F  0.33276304  0.47080960  0.29548549    -0.23600
H1136       H  0.32472351  0.48533652  0.23007439     0.17600
C1137       C  0.31288298  0.49943117  0.82720887    -0.27700
C1138       C  0.31207431  0.53062745  0.81474897     0.05900
C1139       C  0.31008607  0.55503808  0.83931172     0.25600
C1140       C  0.30975296  0.54828835  0.87569694    -0.12200
C1141       C  0.31123829  0.51706003  0.88833328    -0.26100
C1142       C  0.31241866  0.49260116  0.86348717     0.36400
C1143       C  0.31540024  0.53786847  0.77650817     0.05900
F1144       F  0.30961088  0.58552645  0.82815673    -0.19900
H1145       H  0.30872395  0.56760834  0.89399319     0.15800
F1146       F  0.31356903  0.46198505  0.87404838    -0.23600
H1147       H  0.31422790  0.48026446  0.80872870     0.17600
C1148       C  0.33654221  0.52675485  0.75841781     0.25600
C1149       C  0.34182883  0.53760829  0.72416733    -0.12100
C1150       C  0.32626469  0.56004489  0.70711748    -0.26200
C1151       C  0.30347774  0.56802258  0.72384870     0.36500
C1152       C  0.29842514  0.55756373  0.75841889    -0.27800
F1153       F  0.35290554  0.50666524  0.77452993    -0.19900
H1154       H  0.35832233  0.52829983  0.71159034     0.15800
F1155       F  0.28653887  0.58707467  0.70736377    -0.23600
H1156       H  0.28149789  0.56543837  0.77142035     0.17600
C1157       C  0.61330994  0.44734967  0.23928726    -0.27700
C1158       C  0.59479300  0.46348268  0.21983551     0.05900
C1159       C  0.57133565  0.46874937  0.23549023     0.25600
C1160       C  0.56635954  0.45761674  0.26963049    -0.12200
C1161       C  0.58440838  0.44013820  0.28896597    -0.26100
C1162       C  0.60836011  0.43616051  0.27359931     0.36400
C1163       C  0.59934493  0.47339416  0.18265429     0.05900
F1164       F  0.55274065  0.48363789  0.21721899    -0.19900
H1165       H  0.54814606  0.46315326  0.28028315     0.15800
F1166       F  0.62687397  0.42076310  0.29148015    -0.23600
H1167       H  0.63162532  0.44327049  0.22776966     0.17600
C1168       C  0.59422383  0.50431826  0.17109308     0.25600
C1169       C  0.59562454  0.51230691  0.13515571    -0.12100
C1170       C  0.60217498  0.48965944  0.11006165    -0.26200
C1171       C  0.60861719  0.45914398  0.12194920     0.36500
C1172       C  0.60721326  0.45118963  0.15792204    -0.27800
F1173       F  0.58762420  0.52672905  0.19453641    -0.19900
H1174       H  0.59094431  0.53608171  0.12689406     0.15800
F1175       F  0.61613510  0.43689024  0.09888490    -0.23600
H1176       H  0.61144063  0.42732271  0.16633472     0.17600
C1177       C  0.58614134  0.59762585  0.78020972    -0.27700
C1178       C  0.59871724  0.56955854  0.78872862     0.05900
C1179       C  0.60871216  0.55158123  0.76128406     0.25600
C1180       C  0.60583753  0.56128248  0.72594546    -0.12200
C1181       C  0.59270368  0.58913889  0.71699749    -0.26100
C1182       C  0.58291574  0.60718385  0.74493136     0.36400
C1183       C  0.60021252  0.55849547  0.82611625     0.05900
F1184       F  0.62116268  0.52440879  0.76864570    -0.19900
H1185       H  0.61322580  0.54600013  0.70607709     0.15800
F1186       F  0.56936632  0.63363553  0.73810485    -0.23600
H1187       H  0.57798483  0.61163938  0.80092286     0.17600
C1188       C  0.60984471  0.57807655  0.85250421     0.25600
C1189       C  0.60986487  0.56807641  0.88789713    -0.12100
C1190       C  0.60042370  0.53830677  0.89776911    -0.26200
C1191       C  0.59118457  0.51846324  0.87125070     0.36500
C1192       C  0.59106365  0.52857231  0.83580818    -0.27800
F1193       F  0.61952522  0.60674202  0.84400152    -0.19900
H1194       H  0.61740764  0.58369267  0.90765833     0.15800
F1195       F  0.58148559  0.48978162  0.87960837    -0.23600
H1196       H  0.58327464  0.51326575  0.81593010     0.17600
C1197       C  0.43118444  0.48719047  0.97870284    -0.27700
C1198       C  0.44248847  0.50923021  0.00106065     0.05900
C1199       C  0.42714161  0.52877987  0.02146140     0.25600
C1200       C  0.40099935  0.52621934  0.01944403    -0.12200
C1201       C  0.38971340  0.50378781  0.99754260    -0.26100
C1202       C  0.40507901  0.48420425  0.97718836     0.36400
C1203       C  0.47024195  0.51104059  0.00343952     0.05900
F1204       F  0.43739327  0.54956564  0.04426707    -0.19900
H1205       H  0.38959442  0.54128880  0.03564065     0.15800
F1206       F  0.39493093  0.46252871  0.95536127    -0.23600
H1207       H  0.44260059  0.47225298  0.96238531     0.17600
C1208       C  0.48449157  0.48353441  0.00843668     0.25600
C1209       C  0.51063566  0.48501741  0.00933028    -0.12100
C1210       C  0.52320926  0.51394877  0.00561341    -0.26200
C1211       C  0.50896962  0.54165596  0.00142811     0.36500
C1212       C  0.48269710  0.54011658  0.00020795    -0.27800
F1213       F  0.47312516  0.45517403  0.01297858    -0.19900
H1214       H  0.52104824  0.46341220  0.01305483     0.15800
F1215       F  0.52034755  0.57005346  0.99736307    -0.23600
H1216       H  0.47211359  0.56152116  0.99602636     0.17600
loop_ 
_geom_bond_atom_site_label_1 
_geom_bond_atom_site_label_2 
_geom_bond_distance 
_geom_bond_site_symmetry_2 
_ccdc_geom_bond_type 
O1           Cu9   1.993       .  S
O1           C11   1.276   1_556  A
O2           Cu9   1.993       .  S
O2           C12   1.274   1_556  A
O3           Cu9   2.013   1_554  S
O3           C13   1.279       .  A
O4           Cu9   2.027       .  S
O4           C14   1.281       .  A
O5          Cu10   1.998   1_556  S
O5           C14   1.277       .  A
O6          Cu10   2.009       .  S
O6           C13   1.278       .  A
O7          Cu10   2.013       .  S
O7           C12   1.278       .  A
O8          Cu10   2.020       .  S
O8           C11   1.279       .  A
Cu9         Cu10   2.372   1_556  S
C11        C1210   1.480       .  S
C12         C314   1.460       .  S
C13        C1170   1.483       .  S
C14        C1190   1.484       .  S
O15         Cu23   1.994       .  S
O15          C25   1.275   1_554  A
O16         Cu23   2.002       .  S
O16          C26   1.277   1_554  A
O17         Cu23   2.031   1_556  S
O17          C27   1.282       .  A
O18         Cu23   2.031       .  S
O18          C28   1.281       .  A
O19         Cu24   1.987   1_554  S
O19          C28   1.275       .  A
O20         Cu24   1.997       .  S
O20          C27   1.276       .  A
O21         Cu24   2.012       .  S
O21          C26   1.279       .  A
O22         Cu24   2.013       .  S
O22          C25   1.277       .  A
Cu23        Cu24   2.370   1_554  S
C25         C438   1.460       .  S
C26        C1201   1.478       .  S
C27        C1141   1.489       .  S
C28        C1121   1.482       .  S
C29          C30   1.547       .  S
C29          C35   1.533       .  S
C29          C33   1.542       .  S
C29        C1150   1.535       .  S
C30          H37   1.082       .  S
C30          C31   1.368       .  D
C31          C32   1.535       .  S
C31        C1081   1.484       .  S
C32          C36   1.535       .  S
C32          C34   1.539       .  S
C32          H38   1.110       .  S
C33          H39   1.086       .  S
C33          C34   1.364       .  D
C34        C1101   1.479       .  S
C35          H40   1.086       .  S
C35          C36   1.365       .  D
C36          C56   1.468       .  S
C41          C42   1.536       .  S
C41          C47   1.531       .  S
C41          C45   1.547       .  S
C41        C1130   1.533       .  S
C42          H49   1.086       .  S
C42          C43   1.365       .  D
C43          C44   1.538       .  S
C43        C1041   1.485       .  S
C44          C48   1.542       .  S
C44          C46   1.542       .  S
C44          H50   1.110       .  S
C45          H51   1.079       .  S
C45          C46   1.369       .  D
C46        C1061   1.487       .  S
C47          H52   1.086       .  S
C47          C48   1.365       .  D
C48          C73   1.475       .  S
N53          N54   1.324       .  A
N53          C57   1.348       .  A
N53         Cu61   2.098       .  S
N54          C55   1.343       .  A
N54         Cu60   2.059       .  S
C55          C56   1.376       .  A
C55          H58   1.082       .  S
C56          C57   1.385       .  A
C57          H59   1.082       .  S
Cu60         N63   2.057       .  S
Cu61         N71   2.098       .  S
Cu62         N64   2.072       .  S
Cu62         N70   2.072       .  S
N63          N64   1.320       .  A
N63          C67   1.344       .  A
N64          C65   1.344       .  A
C65          C66   1.383       .  A
C65          H68   1.082       .  S
C66         C259   1.463       .  S
C66          C67   1.380       .  A
C67          H69   1.083       .  S
N70          N71   1.324       .  A
N70          C74   1.342       .  A
N71          C72   1.351       .  A
C72          C73   1.387       .  A
C72          H75   1.082       .  S
C73          C74   1.380       .  A
C74          H76   1.082       .  S
C77          C78   1.543       .  S
C77          C83   1.539       .  S
C77          C81   1.533       .  S
C77        C1021   1.535       .  S
C78          H85   1.081       .  S
C78          C79   1.366       .  D
C79          C80   1.538       .  S
C79         C121   1.474       .  S
C80          C84   1.536       .  S
C80          C82   1.544       .  S
C80          H86   1.109       .  S
C81          H87   1.086       .  S
C81          C82   1.367       .  D
C82        C1110   1.491       .  S
C83          H88   1.086       .  S
C83          C84   1.366       .  D
C84        C1001   1.484       .  S
C89          C90   1.542       .  S
C89          C95   1.541       .  S
C89          C93   1.532       .  S
C89         C981   1.533       .  S
C90          H97   1.084       .  S
C90          C91   1.368       .  D
C91          C92   1.538       .  S
C91         C104   1.472       .  S
C92          C96   1.537       .  S
C92          C94   1.540       .  S
C92          H98   1.111       .  S
C93          H99   1.086       .  S
C93          C94   1.363       .  D
C94        C1070   1.483       .  S
C95         H100   1.086       .  S
C95          C96   1.366       .  D
C96         C961   1.479       .  S
N101        N102   1.324       .  A
N101        C105   1.350       .  A
N101       Cu109   2.100   1_545  S
N102        C103   1.343       .  A
N102       Cu108   2.069       .  S
C103        C104   1.377       .  A
C103        H106   1.084       .  S
C104        C105   1.386       .  A
C105        H107   1.082       .  S
Cu108       N111   2.068       .  S
Cu109       N119   2.099       .  S
Cu110       N112   2.068       .  S
Cu110       N118   2.069       .  S
N111        N112   1.321   1_545  A
N111        C115   1.345       .  A
N112        C113   1.344       .  A
C113        C114   1.381   1_565  A
C113        H116   1.085       .  S
C114        C385   1.465       .  S
C114        C115   1.382       .  A
C115        H117   1.086       .  S
N118        N119   1.323       .  A
N118        C122   1.344       .  A
N119        C120   1.349       .  A
C120        C121   1.387       .  A
C120        H123   1.081       .  S
C121        C122   1.379       .  A
C122        H124   1.082       .  S
O125       Cu133   2.033       .  S
O125        C135   1.281   1_565  A
O126       Cu133   2.025   1_556  S
O126        C136   1.281       .  A
O127       Cu133   1.996       .  S
O127        C137   1.275   1_564  A
O128       Cu133   2.003       .  S
O128        C138   1.277   1_564  A
O129       Cu134   2.018       .  S
O129        C138   1.279       .  A
O130       Cu134   2.011       .  S
O130        C137   1.278       .  A
O131       Cu134   2.002       .  S
O131        C136   1.277   1_545  A
O132       Cu134   2.001   1_554  S
O132        C135   1.277       .  A
Cu133      Cu134   2.370   1_564  S
C135        C901   1.489       .  S
C136        C921   1.487       .  S
C137        C362   1.460       .  S
C138        C941   1.480       .  S
O139       Cu147   2.013       .  S
O139        C149   1.279   1_565  A
O140       Cu147   2.010       .  S
O140        C150   1.277   1_565  A
O141       Cu147   1.995   1_556  S
O141        C151   1.276       .  A
O142       Cu147   2.010       .  S
O142        C152   1.278   1_565  A
O143       Cu148   2.010       .  S
O143        C152   1.278       .  A
O144       Cu148   2.020   1_556  S
O144        C151   1.280   1_545  A
O145       Cu148   2.008       .  S
O145        C150   1.276       .  A
O146       Cu148   2.007       .  S
O146        C149   1.278       .  A
Cu147      Cu148   2.370   1_565  S
C149        C950   1.483       .  S
C150        C486   1.463       .  S
C151       C1030   1.485       .  S
C152        C990   1.484       .  S
C153        C154   1.545       .  S
C153        C159   1.533       .  S
C153        C157   1.540       .  S
C153        C930   1.534       .  S
C154        H161   1.079       .  S
C154        C155   1.362       .  D
C155        C156   1.530       .  S
C155       C1010   1.468       .  S
C156        C160   1.536       .  S
C156        C158   1.540       .  S
C156        H162   1.111       .  S
C157        H163   1.085       .  S
C157        C158   1.368       .  D
C158        C881   1.483       .  S
C159        H164   1.087       .  S
C159        C160   1.365       .  D
C160        C197   1.469       .  S
C165        C166   1.539       .  S
C165        C171   1.545       .  S
C165        C169   1.534       .  S
C165        C910   1.541       .  S
C166        H173   1.086       .  S
C166        C167   1.365       .  D
C167        C168   1.537       .  S
C167        C970   1.483       .  S
C168        C172   1.538       .  S
C168        C170   1.550       .  S
C168        H174   1.108       .  S
C169        H175   1.085       .  S
C169        C170   1.371       .  D
C170        C861   1.502       .  S
C171        H176   1.079       .  S
C171        C172   1.366       .  D
C172        C180   1.475       .  S
N177        N178   1.324       .  A
N177        C181   1.347       .  A
N177       Cu185   2.093       .  S
N178        C179   1.346       .  A
N178       Cu184   2.079       .  S
C179        C180   1.381       .  A
C179        H182   1.081       .  S
C180        C181   1.384       .  A
C181        H183   1.082       .  S
Cu184       N187   2.078       .  S
Cu185       N195   2.092   1_545  S
Cu186       N188   2.058       .  S
Cu186       N194   2.057       .  S
N187        N188   1.322   1_545  A
N187        C191   1.345       .  A
N188        C189   1.343       .  A
C189        C190   1.379   1_565  A
C189        H192   1.085       .  S
C190        C397   1.463       .  S
C190        C191   1.383       .  A
C191        H193   1.085       .  S
N194        N195   1.322       .  A
N194        C198   1.341       .  A
N195        C196   1.349       .  A
C196        C197   1.386       .  A
C196        H199   1.082       .  S
C197        C198   1.377       .  A
C198        H200   1.084       .  S
C201        C202   1.545       .  S
C201        C207   1.536       .  S
C201        C205   1.539       .  S
C201       C1181   1.535       .  S
C202        H209   1.082       .  S
C202        C203   1.366       .  D
C203        C204   1.537       .  S
C203        C228   1.473       .  S
C204        C208   1.532       .  S
C204        C206   1.542       .  S
C204        H210   1.111       .  S
C205        H211   1.086       .  S
C205        C206   1.369       .  D
C206        C890   1.483       .  S
C207        H212   1.087       .  S
C207        C208   1.362       .  D
C208       C1090   1.474       .  S
C213        C214   1.535       .  S
C213        C219   1.542       .  S
C213        C217   1.538       .  S
C213       C1161   1.533       .  S
C214        H221   1.087       .  S
C214        C215   1.366       .  D
C215        C216   1.538       .  S
C215        C245   1.469       .  S
C216        C220   1.535       .  S
C216        C218   1.544       .  S
C216        H222   1.110       .  S
C217        H223   1.086       .  S
C217        C218   1.370       .  D
C218        C870   1.492       .  S
C219        H224   1.083       .  S
C219        C220   1.360       .  D
C220       C1050   1.472       .  S
N225        N226   1.323       .  A
N225        C229   1.349       .  A
N225       Cu233   2.088       .  S
N226        C227   1.343       .  A
N226       Cu232   2.069       .  S
C227        C228   1.380       .  A
C227        H230   1.081       .  S
C228        C229   1.385       .  A
C229        H231   1.083       .  S
Cu232       N235   2.068       .  S
Cu233       N243   2.089       .  S
Cu234       N236   2.074       .  S
Cu234       N242   2.075       .  S
N235        N236   1.322       .  A
N235        C239   1.344       .  A
N236        C237   1.347       .  A
C237        C238   1.383       .  A
C237        H240   1.083       .  S
C238        C273   1.465       .  S
C238        C239   1.380       .  A
C239        H241   1.082       .  S
N242        N243   1.324       .  A
N242        C246   1.345       .  A
N243        C244   1.347       .  A
C244        C245   1.383       .  A
C244        H247   1.082       .  S
C245        C246   1.379       .  A
C246        H248   1.082       .  S
O249       Cu257   2.016       .  S
O249        C259   1.278       .  A
O250       Cu257   2.018       .  S
O250        C260   1.279       .  A
O251       Cu257   2.011       .  S
O251        C261   1.279       .  A
O252       Cu257   2.018       .  S
O252        C262   1.279       .  A
O253       Cu258   2.007       .  S
O253        C262   1.279       .  A
O254       Cu258   2.017       .  S
O254        C261   1.279       .  A
O255       Cu258   2.009       .  S
O255        C260   1.278       .  A
O256       Cu258   2.000       .  S
O256        C259   1.275       .  A
Cu257      Cu258   2.369       .  S
C260        C841   1.484       .  S
C261        C821   1.486       .  S
C262        C810   1.487       .  S
O263       Cu271   2.010       .  S
O263        C273   1.277       .  A
O264       Cu271   2.013       .  S
O264        C274   1.279       .  A
O265       Cu271   2.021       .  S
O265        C275   1.279       .  A
O266       Cu271   2.004       .  S
O266        C276   1.277       .  A
O267       Cu272   2.032       .  S
O267        C276   1.282       .  A
O268       Cu272   2.021       .  S
O268        C275   1.280       .  A
O269       Cu272   2.015       .  S
O269        C274   1.278       .  A
O270       Cu272   2.011       .  S
O270        C273   1.277       .  A
Cu271      Cu272   2.370       .  S
C274        C850   1.483       .  S
C275        C761   1.493       .  S
C276        C790   1.492       .  S
C277        C278   1.545       .  S
C277        C283   1.541       .  S
C277        C281   1.539       .  S
C277        C781   1.541       .  S
C278        H285   1.078       .  S
C278        C279   1.365       .  D
C279        C280   1.532       .  S
C279        C321   1.471       .  S
C280        C284   1.534       .  S
C280        C282   1.534       .  S
C280        H286   1.111       .  S
C281        H287   1.086       .  S
C281        C282   1.365       .  D
C282        C741   1.476       .  S
C283        H288   1.086       .  S
C283        C284   1.368       .  D
C284        C721   1.480       .  S
C289        C290   1.545       .  S
C289        C295   1.540       .  S
C289        C293   1.537       .  S
C289        C770   1.536       .  S
C290        H297   1.084       .  S
C290        C291   1.368       .  D
C291        C292   1.535       .  S
C291        C304   1.470       .  S
C292        C296   1.529       .  S
C292        C294   1.539       .  S
C292        H298   1.111       .  S
C293        H299   1.087       .  S
C293        C294   1.366       .  D
C294        C710   1.483       .  S
C295        H300   1.086       .  S
C295        C296   1.364       .  D
C296        C681   1.470       .  S
N301        N302   1.324       .  A
N301        C305   1.347       .  A
N301       Cu309   2.088       .  S
N302        C303   1.345       .  A
N302       Cu308   2.069       .  S
C303        C304   1.379       .  A
C303        H306   1.082       .  S
C304        C305   1.383       .  A
C305        H307   1.081       .  S
Cu308       N311   2.067       .  S
Cu309       N319   2.087   1_554  S
Cu310       N312   2.063       .  S
Cu310       N318   2.064       .  S
N311        N312   1.322   1_554  A
N311        C315   1.344       .  A
N312        C313   1.344       .  A
C313        C314   1.379   1_556  A
C313        H316   1.086       .  S
C314        C315   1.381       .  A
C315        H317   1.085       .  S
N318        N319   1.322       .  A
N318        C322   1.342       .  A
N319        C320   1.348       .  A
C320        C321   1.385       .  A
C320        H323   1.082       .  S
C321        C322   1.380       .  A
C322        H324   1.084       .  S
C325        C326   1.534       .  S
C325        C331   1.527       .  S
C325        C329   1.546       .  S
C325        C661   1.528       .  S
C326        H333   1.087       .  S
C326        C327   1.365       .  D
C327        C328   1.536       .  S
C327        C641   1.480       .  S
C328        C332   1.541       .  S
C328        C330   1.538       .  S
C328        H334   1.110       .  S
C329        H335   1.083       .  S
C329        C330   1.367       .  D
C330        C750   1.481       .  S
C331        H336   1.086       .  S
C331        C332   1.364       .  D
C332        C352   1.470       .  S
C337        C338   1.539       .  S
C337        C343   1.541       .  S
C337        C341   1.536       .  S
C337        C630   1.530       .  S
C338        H345   1.086       .  S
C338        C339   1.363       .  D
C339        C340   1.529       .  S
C339        C610   1.474       .  S
C340        C344   1.533       .  S
C340        C342   1.538       .  S
C340        H346   1.111       .  S
C341        H347   1.087       .  S
C341        C342   1.365       .  D
C342        C701   1.482       .  S
C343        H348   1.079       .  S
C343        C344   1.366       .  D
C344        C369   1.463       .  S
N349        N350   1.323       .  A
N349        C353   1.349       .  A
N349       Cu357   2.084   1_566  S
N350        C351   1.341       .  A
N350       Cu356   2.071       .  S
C351        C352   1.379       .  A
C351        H354   1.082       .  S
C352        C353   1.384       .  A
C353        H355   1.082       .  S
Cu356       N359   2.069       .  S
Cu357       N367   2.085       .  S
Cu358       N360   2.052       .  S
Cu358       N366   2.053       .  S
N359        N360   1.320   1_566  A
N359        C363   1.344       .  A
N360        C361   1.343       .  A
C361        C362   1.379   1_554  A
C361        H364   1.083       .  S
C362        C363   1.383   1_545  A
C363        H365   1.082       .  S
N366        N367   1.323       .  A
N366        C370   1.340       .  A
N367        C368   1.348       .  A
C368        C369   1.384       .  A
C368        H371   1.082       .  S
C369        C370   1.374       .  A
C370        H372   1.082       .  S
O373       Cu381   2.014       .  S
O373        C383   1.279       .  A
O374       Cu381   2.027       .  S
O374        C384   1.281   1_545  A
O375       Cu381   2.005       .  S
O375        C385   1.276       .  A
O376       Cu381   2.008       .  S
O376        C386   1.277       .  A
O377       Cu382   2.017       .  S
O377        C386   1.279   1_565  A
O378       Cu382   2.015       .  S
O378        C385   1.278   1_565  A
O379       Cu382   1.992       .  S
O379        C384   1.276       .  A
O380       Cu382   2.012       .  S
O380        C383   1.279   1_565  A
Cu381      Cu382   2.372   1_545  S
C383        C541   1.488       .  S
C384        C561   1.484       .  S
C386        C590   1.473       .  S
O387       Cu395   2.002       .  S
O387        C397   1.276       .  A
O388       Cu395   2.009       .  S
O388        C398   1.278       .  A
O389       Cu395   2.003       .  S
O389        C399   1.278       .  A
O390       Cu395   2.015       .  S
O390        C400   1.279   1_545  A
O391       Cu396   1.994       .  S
O391        C400   1.276       .  A
O392       Cu396   2.005       .  S
O392        C399   1.277   1_565  A
O393       Cu396   2.014       .  S
O393        C398   1.279   1_565  A
O394       Cu396   2.012       .  S
O394        C397   1.278   1_565  A
Cu395      Cu396   2.371   1_545  S
C398        C581   1.487       .  S
C399        C621   1.481       .  S
C400        C670   1.480       .  S
C401        C402   1.539       .  S
C401        C407   1.536       .  S
C401        C405   1.547       .  S
C401        C830   1.536       .  S
C402        H409   1.086       .  S
C402        C403   1.367       .  D
C403        C404   1.531       .  S
C403        C730   1.476       .  S
C404        C408   1.538       .  S
C404        C406   1.537       .  S
C404        H410   1.111       .  S
C405        H411   1.083       .  S
C405        C406   1.364       .  D
C406        C521   1.477       .  S
C407        H412   1.086       .  S
C407        C408   1.366       .  D
C408        C445   1.472       .  S
C413        C414   1.546       .  S
C413        C419   1.535       .  S
C413        C417   1.541       .  S
C413        C801   1.539       .  S
C414        H421   1.078       .  S
C414        C415   1.363       .  D
C415        C416   1.531       .  S
C415        C690   1.478       .  S
C416        C420   1.539       .  S
C416        C418   1.543       .  S
C416        H422   1.110       .  S
C417        H423   1.086       .  S
C417        C418   1.373       .  D
C418        C501   1.493       .  S
C419        H424   1.086       .  S
C419        C420   1.365       .  D
C420        C428   1.473       .  S
N425        N426   1.326       .  A
N425        C429   1.349       .  A
N425       Cu433   2.101   1_554  S
N426        C427   1.345       .  A
N426       Cu432   2.079       .  S
C427        C428   1.379       .  A
C427        H430   1.084       .  S
C428        C429   1.384       .  A
C429        H431   1.082       .  S
Cu432       N435   2.077       .  S
Cu433       N443   2.099       .  S
Cu434       N436   2.050       .  S
Cu434       N442   2.051       .  S
N435        N436   1.321   1_554  A
N435        C439   1.347       .  A
N436        C437   1.340       .  A
C437        C438   1.376       .  A
C437        H440   1.085       .  S
C438        C439   1.384   1_556  A
C439        H441   1.085       .  S
N442        N443   1.322       .  A
N442        C446   1.341       .  A
N443        C444   1.351       .  A
C444        C445   1.388       .  A
C444        H447   1.079       .  S
C445        C446   1.376       .  A
C446        H448   1.082       .  S
C449        C450   1.534       .  S
C449        C455   1.537       .  S
C449        C453   1.545       .  S
C449        C570   1.532       .  S
C450        H457   1.086       .  S
C450        C451   1.364       .  D
C451        C452   1.535       .  S
C451        C476   1.469       .  S
C452        C456   1.532       .  S
C452        C454   1.545       .  S
C452        H458   1.109       .  S
C453        H459   1.079       .  S
C453        C454   1.374       .  D
C454        C530   1.496       .  S
C455        H460   1.087       .  S
C455        C456   1.360       .  D
C456        C650   1.467       .  S
C461        C462   1.531       .  S
C461        C467   1.542       .  S
C461        C465   1.538       .  S
C461        C550   1.535       .  S
C462        H469   1.086       .  S
C462        C463   1.364       .  D
C463        C464   1.540       .  S
C463        C493   1.472       .  S
C464        C468   1.536       .  S
C464        C466   1.548       .  S
C464        H470   1.108       .  S
C465        H471   1.085       .  S
C465        C466   1.373       .  D
C466        C510   1.503       .  S
C467        H472   1.083       .  S
C467        C468   1.363       .  D
C468        C601   1.472       .  S
N473        N474   1.324       .  A
N473        C477   1.349       .  A
N473       Cu481   2.091   1_566  S
N474        C475   1.343       .  A
N474       Cu480   2.066       .  S
C475        C476   1.377       .  A
C475        H478   1.082       .  S
C476        C477   1.384       .  A
C477        H479   1.082       .  S
Cu480       N483   2.065   1_556  S
Cu481       N491   2.091       .  S
Cu482       N484   2.074       .  S
Cu482       N490   2.075       .  S
N483        N484   1.321   1_565  A
N483        C487   1.345   1_554  A
N484        C485   1.345       .  A
C485        C486   1.382       .  A
C485        H488   1.082       .  S
C486        C487   1.381   1_544  A
C487        H489   1.082       .  S
N490        N491   1.324       .  A
N490        C494   1.344       .  A
N491        C492   1.349       .  A
C492        C493   1.385       .  A
C492        H495   1.082       .  S
C493        C494   1.380       .  A
C494        H496   1.081       .  S
C497        C498   1.401       .  A
C497        C502   1.396       .  A
C497        H507   1.086       .  S
C498        C503   1.481       .  S
C498        C499   1.405       .  A
C499        C500   1.405       .  A
C499        F504   1.357       .  S
C500        C501   1.408       .  A
C500        H505   1.084       .  S
C501        C502   1.410       .  A
C502        F506   1.357       .  S
C503        C508   1.400       .  A
C503        C512   1.403       .  A
C508        C509   1.395       .  A
C508        F513   1.357       .  S
C509        C510   1.409       .  A
C509        H514   1.083       .  S
C510        C511   1.416       .  A
C511        C512   1.406       .  A
C511        F515   1.355       .  S
C512        H516   1.085       .  S
C517        C518   1.405       .  A
C517        C522   1.396       .  A
C517        H527   1.082       .  S
C518        C523   1.486       .  S
C518        C519   1.409       .  A
C519        C520   1.403       .  A
C519        F524   1.357       .  S
C520        C521   1.402       .  A
C520        H525   1.082       .  S
C521        C522   1.403       .  A
C522        F526   1.355       .  S
C523        C528   1.406       .  A
C523        C532   1.404       .  A
C528        C529   1.398       .  A
C528        F533   1.357       .  S
C529        C530   1.408       .  A
C529        H534   1.083       .  S
C530        C531   1.411       .  A
C531        C532   1.399       .  A
C531        F535   1.355       .  S
C532        H536   1.083       .  S
C537        C538   1.402       .  A
C537        C542   1.401       .  A
C537        H547   1.081       .  S
C538        C543   1.479       .  S
C538        C539   1.403       .  A
C539        C540   1.399       .  A
C539        F544   1.357   1_545  S
C540        C541   1.408       .  A
C540        H545   1.081   1_545  S
C541        C542   1.412       .  A
C542        F546   1.357       .  S
C543        C548   1.402       .  A
C543        C552   1.400       .  A
C548        C549   1.398       .  A
C548        F553   1.358       .  S
C549        C550   1.412       .  A
C549        H554   1.078       .  S
C550        C551   1.415       .  A
C551        C552   1.401       .  A
C551        F555   1.358       .  S
C552        H556   1.084       .  S
C557        C558   1.405       .  A
C557        C562   1.401   1_565  A
C557        H567   1.083   1_565  S
C558        C563   1.485       .  S
C558        C559   1.406       .  A
C559        C560   1.396       .  A
C559        F564   1.358       .  S
C560        C561   1.407       .  A
C560        H565   1.083       .  S
C561        C562   1.408   1_565  A
C562        F566   1.357       .  S
C563        C568   1.406       .  A
C563        C572   1.401       .  A
C568        C569   1.399       .  A
C568        F573   1.358       .  S
C569        C570   1.411       .  A
C569        H574   1.075       .  S
C570        C571   1.414       .  A
C571        C572   1.398       .  A
C571        F575   1.358       .  S
C572        H576   1.083       .  S
C577        C578   1.406       .  A
C577        C582   1.400       .  A
C577        H587   1.082       .  S
C578        C583   1.490       .  S
C578        C579   1.408   1_545  A
C579        C580   1.399       .  A
C579        F584   1.357       .  S
C580        C581   1.406   1_565  A
C580        H585   1.082       .  S
C581        C582   1.410       .  A
C582        F586   1.358       .  S
C583        C588   1.410       .  A
C583        C592   1.408   1_545  A
C588        C589   1.399   1_655  A
C588        F593   1.357       .  S
C589        C590   1.402       .  A
C589        H594   1.082       .  S
C590        C591   1.404   1_545  A
C591        C592   1.400   1_455  A
C591        F595   1.358       .  S
C592        H596   1.082       .  S
C597        C598   1.404       .  A
C597        C602   1.399       .  A
C597        H607   1.084       .  S
C598        C603   1.474       .  S
C598        C599   1.405       .  A
C599        C600   1.394   1_655  A
C599        F604   1.358       .  S
C600        C601   1.400       .  A
C600        H605   1.082       .  S
C601        C602   1.404   1_455  A
C602        F606   1.357   1_655  S
C603        C608   1.405       .  A
C603        C612   1.402       .  A
C608        C609   1.401       .  A
C608        F613   1.357       .  S
C609        C610   1.405       .  A
C609        H614   1.083       .  S
C610        C611   1.404       .  A
C611        C612   1.390       .  A
C611        F615   1.358       .  S
C612        H616   1.084       .  S
C617        C618   1.403       .  A
C617        C622   1.398       .  A
C617        H627   1.084       .  S
C618        C623   1.479       .  S
C618        C619   1.405       .  A
C619        C620   1.395       .  A
C619        F624   1.358       .  S
C620        C621   1.406       .  A
C620        H625   1.083       .  S
C621        C622   1.410       .  A
C622        F626   1.357   1_545  S
C623        C628   1.401       .  A
C623        C632   1.403       .  A
C628        C629   1.390       .  A
C628        F633   1.358       .  S
C629        C630   1.411       .  A
C629        H634   1.084       .  S
C630        C631   1.417       .  A
C631        C632   1.401       .  A
C631        F635   1.352       .  S
C632        H636   1.083       .  S
C637        C638   1.405       .  A
C637        C642   1.403       .  A
C637        H647   1.083       .  S
C638        C643   1.475       .  S
C638        C639   1.403       .  A
C639        C640   1.388       .  A
C639        F644   1.358       .  S
C640        C641   1.404       .  A
C640        H645   1.083       .  S
C641        C642   1.406       .  A
C642        F646   1.357       .  S
C643        C648   1.405       .  A
C643        C652   1.405       .  A
C648        C649   1.398   1_655  A
C648        F653   1.357       .  S
C649        C650   1.400       .  A
C649        H654   1.083       .  S
C650        C651   1.402       .  A
C651        C652   1.395   1_455  A
C651        F655   1.357       .  S
C652        H656   1.084       .  S
C657        C658   1.403       .  A
C657        C662   1.397       .  A
C657        H667   1.084       .  S
C658        C663   1.485       .  S
C658        C659   1.406       .  A
C659        C660   1.395       .  A
C659        F664   1.358       .  S
C660        C661   1.409       .  A
C660        H665   1.078       .  S
C661        C662   1.413       .  A
C662        F666   1.358       .  S
C663        C668   1.408       .  A
C663        C672   1.404       .  A
C668        C669   1.400   1_565  A
C668        F673   1.357   1_565  S
C669        C670   1.406   1_545  A
C669        H674   1.082       .  S
C670        C671   1.408       .  A
C671        C672   1.394       .  A
C671        F675   1.358       .  S
C672        H676   1.082       .  S
C677        C678   1.405       .  A
C677        C682   1.392       .  A
C677        H687   1.084       .  S
C678        C683   1.481       .  S
C678        C679   1.409       .  A
C679        C680   1.402       .  A
C679        F684   1.357       .  S
C680        C681   1.402       .  A
C680        H685   1.084       .  S
C681        C682   1.401       .  A
C682        F686   1.357       .  S
C683        C688   1.407       .  A
C683        C692   1.406       .  A
C688        C689   1.396   1_655  A
C688        F693   1.357       .  S
C689        C690   1.403       .  A
C689        H694   1.083       .  S
C690        C691   1.404       .  A
C691        C692   1.398   1_455  A
C691        F695   1.357       .  S
C692        H696   1.083       .  S
C697        C698   1.401       .  A
C697        C702   1.398       .  A
C697        H707   1.084       .  S
C698        C703   1.475       .  S
C698        C699   1.405       .  A
C699        C700   1.400       .  A
C699        F704   1.357       .  S
C700        C701   1.405       .  A
C700        H705   1.084       .  S
C701        C702   1.407       .  A
C702        F706   1.357       .  S
C703        C708   1.405       .  A
C703        C712   1.400       .  A
C708        C709   1.404       .  A
C708        F713   1.357       .  S
C709        C710   1.404       .  A
C709        H714   1.084       .  S
C710        C711   1.408       .  A
C711        C712   1.395       .  A
C711        F715   1.357       .  S
C712        H716   1.084       .  S
C717        C718   1.401       .  A
C717        C722   1.395       .  A
C717        H727   1.083       .  S
C718        C723   1.471       .  S
C718        C719   1.404       .  A
C719        C720   1.399       .  A
C719        F724   1.358       .  S
C720        C721   1.406       .  A
C720        H725   1.082       .  S
C721        C722   1.405       .  A
C722        F726   1.357       .  S
C723        C728   1.405       .  A
C723        C732   1.400       .  A
C728        C729   1.401   1_655  A
C728        F733   1.357       .  S
C729        C730   1.404       .  A
C729        H734   1.082       .  S
C730        C731   1.405       .  A
C731        C732   1.392   1_455  A
C731        F735   1.357       .  S
C732        H736   1.084       .  S
C737        C738   1.405       .  A
C737        C742   1.400       .  A
C737        H747   1.084       .  S
C738        C743   1.480       .  S
C738        C739   1.407       .  A
C739        C740   1.398       .  A
C739        F744   1.358       .  S
C740        C741   1.403       .  A
C740        H745   1.084       .  S
C741        C742   1.403       .  A
C742        F746   1.357       .  S
C743        C748   1.405       .  A
C743        C752   1.404       .  A
C748        C749   1.397       .  A
C748        F753   1.357       .  S
C749        C750   1.403       .  A
C749        H754   1.083       .  S
C750        C751   1.407       .  A
C751        C752   1.400       .  A
C751        F755   1.356       .  S
C752        H756   1.083       .  S
C757        C758   1.405       .  A
C757        C762   1.403       .  A
C757        H767   1.083       .  S
C758        C763   1.492       .  S
C758        C759   1.408       .  A
C759        C760   1.401       .  A
C759        F764   1.358       .  S
C760        C761   1.407       .  A
C760        H765   1.083       .  S
C761        C762   1.412       .  A
C762        F766   1.357       .  S
C763        C768   1.408       .  A
C763        C772   1.402       .  A
C768        C769   1.405       .  A
C768        F773   1.357       .  S
C769        C770   1.412       .  A
C769        H774   1.081       .  S
C770        C771   1.414       .  A
C771        C772   1.397       .  A
C771        F775   1.358       .  S
C772        H776   1.084       .  S
C777        C778   1.402       .  A
C777        C782   1.402       .  A
C777        H787   1.082       .  S
C778        C783   1.490       .  S
C778        C779   1.404       .  A
C779        C780   1.398       .  A
C779        F784   1.357       .  S
C780        C781   1.412       .  A
C780        H785   1.083       .  S
C781        C782   1.420       .  A
C782        F786   1.351       .  S
C783        C788   1.408       .  A
C783        C792   1.404       .  A
C788        C789   1.402       .  A
C788        F793   1.357       .  S
C789        C790   1.407       .  A
C789        H794   1.084       .  S
C790        C791   1.413       .  A
C791        C792   1.400       .  A
C791        F795   1.357       .  S
C792        H796   1.084       .  S
C797        C798   1.404       .  A
C797        C802   1.404       .  A
C797        H807   1.081       .  S
C798        C803   1.484       .  S
C798        C799   1.401       .  A
C799        C800   1.395       .  A
C799        F804   1.358       .  S
C800        C801   1.415       .  A
C800        H805   1.070       .  S
C801        C802   1.414       .  A
C802        F806   1.357       .  S
C803        C808   1.404       .  A
C803        C812   1.405       .  A
C808        C809   1.398       .  A
C808        F813   1.357       .  S
C809        C810   1.408       .  A
C809        H814   1.082       .  S
C810        C811   1.410       .  A
C811        C812   1.401       .  A
C811        F815   1.357       .  S
C812        H816   1.082       .  S
C817        C818   1.406       .  A
C817        C822   1.397       .  A
C817        H827   1.083       .  S
C818        C823   1.492       .  S
C818        C819   1.409       .  A
C819        C820   1.403       .  A
C819        F824   1.357       .  S
C820        C821   1.407       .  A
C820        H825   1.083       .  S
C821        C822   1.408       .  A
C822        F826   1.357       .  S
C823        C828   1.406       .  A
C823        C832   1.405       .  A
C828        C829   1.396       .  A
C828        F833   1.358       .  S
C829        C830   1.410       .  A
C829        H834   1.080       .  S
C830        C831   1.415       .  A
C831        C832   1.402       .  A
C831        F835   1.358       .  S
C832        H836   1.084       .  S
C837        C838   1.406       .  A
C837        C842   1.401   1_655  A
C837        H847   1.080       .  S
C838        C843   1.487       .  S
C838        C839   1.406       .  A
C839        C840   1.399   1_655  A
C839        F844   1.357       .  S
C840        C841   1.407       .  A
C840        H845   1.080       .  S
C841        C842   1.409       .  A
C842        F846   1.357       .  S
C843        C848   1.407       .  A
C843        C852   1.406       .  A
C848        C849   1.400       .  A
C848        F853   1.358       .  S
C849        C850   1.406       .  A
C849        H854   1.081       .  S
C850        C851   1.408       .  A
C851        C852   1.400       .  A
C851        F855   1.357       .  S
C852        H856   1.081       .  S
C857        C858   1.405       .  A
C857        C862   1.406       .  A
C857        H867   1.084       .  S
C858        C863   1.485       .  S
C858        C859   1.403       .  A
C859        C860   1.395       .  A
C859        F864   1.358       .  S
C860        C861   1.410       .  A
C860        H865   1.082       .  S
C861        C862   1.413       .  A
C862        F866   1.356       .  S
C863        C868   1.406       .  A
C863        C872   1.403       .  A
C868        C869   1.402       .  A
C868        F873   1.357       .  S
C869        C870   1.406       .  A
C869        H874   1.081       .  S
C870        C871   1.410       .  A
C871        C872   1.398       .  A
C871        F875   1.358       .  S
C872        H876   1.083       .  S
C877        C878   1.401       .  A
C877        C882   1.395       .  A
C877        H887   1.085       .  S
C878        C883   1.477       .  S
C878        C879   1.405       .  A
C879        C880   1.404       .  A
C879        F884   1.357       .  S
C880        C881   1.406       .  A
C880        H885   1.084       .  S
C881        C882   1.407       .  A
C882        F886   1.357       .  S
C883        C888   1.404       .  A
C883        C892   1.403       .  A
C888        C889   1.401       .  A
C888        F893   1.357       .  S
C889        C890   1.405       .  A
C889        H894   1.082       .  S
C890        C891   1.407       .  A
C891        C892   1.399       .  A
C891        F895   1.356       .  S
C892        H896   1.082       .  S
C897        C898   1.405       .  A
C897        C902   1.404       .  A
C897        H907   1.082       .  S
C898        C903   1.487       .  S
C898        C899   1.405       .  A
C899        C900   1.398       .  A
C899        F904   1.358       .  S
C900        C901   1.408       .  A
C900        H905   1.082       .  S
C901        C902   1.410       .  A
C902        F906   1.357   1_545  S
C903        C908   1.403       .  A
C903        C912   1.402       .  A
C908        C909   1.397       .  A
C908        F913   1.358       .  S
C909        C910   1.412       .  A
C909        H914   1.084       .  S
C910        C911   1.418       .  A
C911        C912   1.404       .  A
C911        F915   1.352       .  S
C912        H916   1.085       .  S
C917        C918   1.402   1_545  A
C917        C922   1.397       .  A
C917        H927   1.083       .  S
C918        C923   1.482       .  S
C918        C919   1.405       .  A
C919        C920   1.401       .  A
C919        F924   1.357       .  S
C920        C921   1.408       .  A
C920        H925   1.083       .  S
C921        C922   1.411   1_565  A
C922        F926   1.357       .  S
C923        C928   1.402       .  A
C923        C932   1.403       .  A
C928        C929   1.394       .  A
C928        F933   1.358       .  S
C929        C930   1.412       .  A
C929        H934   1.072       .  S
C930        C931   1.414       .  A
C931        C932   1.403       .  A
C931        F935   1.358       .  S
C932        H936   1.081       .  S
C937        C938   1.408   1_556  A
C937        C942   1.400       .  A
C937        H947   1.080       .  S
C938        C943   1.490       .  S
C938        C939   1.409   1_545  A
C939        C940   1.398       .  A
C939        F944   1.357       .  S
C940        C941   1.405   1_564  A
C940        H945   1.081       .  S
C941        C942   1.406       .  A
C942        F946   1.357       .  S
C943        C948   1.409       .  A
C943        C952   1.407   1_545  A
C948        C949   1.399       .  A
C948        F953   1.357       .  S
C949        C950   1.406       .  A
C949        H954   1.081       .  S
C950        C951   1.408   1_545  A
C951        C952   1.399       .  A
C951        F955   1.357       .  S
C952        H956   1.080       .  S
C957        C958   1.402       .  A
C957        C962   1.397       .  A
C957        H967   1.083       .  S
C958        C963   1.474       .  S
C958        C959   1.404       .  A
C959        C960   1.398       .  A
C959        F964   1.358       .  S
C960        C961   1.405       .  A
C960        H965   1.083       .  S
C961        C962   1.405       .  A
C962        F966   1.356       .  S
C963        C968   1.403       .  A
C963        C972   1.402       .  A
C968        C969   1.394       .  A
C968        F973   1.358       .  S
C969        C970   1.403       .  A
C969        H974   1.084       .  S
C970        C971   1.409       .  A
C971        C972   1.403       .  A
C971        F975   1.355       .  S
C972        H976   1.084       .  S
C977        C978   1.403       .  A
C977        C982   1.402       .  A
C977        H987   1.082       .  S
C978        C983   1.484       .  S
C978        C979   1.403       .  A
C979        C980   1.395       .  A
C979        F984   1.358       .  S
C980        C981   1.412       .  A
C980        H985   1.081       .  S
C981        C982   1.416       .  A
C982        F986   1.355       .  S
C983        C988   1.405       .  A
C983        C992   1.405       .  A
C988        C989   1.399       .  A
C988        F993   1.357   1_545  S
C989        C990   1.407       .  A
C989        H994   1.084   1_545  S
C990        C991   1.409       .  A
C991        C992   1.398       .  A
C991        F995   1.357       .  S
C992        H996   1.084       .  S
C997        C998   1.406       .  A
C997       C1002   1.399       .  A
C997       H1007   1.082       .  S
C998       C1003   1.485       .  S
C998        C999   1.408       .  A
C999       C1000   1.393       .  A
C999       F1004   1.358       .  S
C1000      C1001   1.404       .  A
C1000      H1005   1.082       .  S
C1001      C1002   1.408       .  A
C1002      F1006   1.357       .  S
C1003      C1008   1.410       .  A
C1003      C1012   1.407       .  A
C1008      C1009   1.396       .  A
C1008      F1013   1.358       .  S
C1009      C1010   1.399       .  A
C1009      H1014   1.086       .  S
C1010      C1011   1.401       .  A
C1011      C1012   1.397       .  A
C1011      F1015   1.357       .  S
C1012      H1016   1.083       .  S
C1017      C1018   1.402       .  A
C1017      C1022   1.401       .  A
C1017      H1027   1.084       .  S
C1018      C1023   1.481       .  S
C1018      C1019   1.402       .  A
C1019      C1020   1.394       .  A
C1019      F1024   1.358       .  S
C1020      C1021   1.412       .  A
C1020      H1025   1.083       .  S
C1021      C1022   1.416       .  A
C1022      F1026   1.353       .  S
C1023      C1028   1.405       .  A
C1023      C1032   1.402       .  A
C1028      C1029   1.400       .  A
C1028      F1033   1.357   1_565  S
C1029      C1030   1.407       .  A
C1029      H1034   1.083   1_565  S
C1030      C1031   1.411       .  A
C1031      C1032   1.396       .  A
C1031      F1035   1.357       .  S
C1032      H1036   1.083       .  S
C1037      C1038   1.400       .  A
C1037      C1042   1.392       .  A
C1037      H1047   1.084       .  S
C1038      C1043   1.476       .  S
C1038      C1039   1.405       .  A
C1039      C1040   1.402       .  A
C1039      F1044   1.357       .  S
C1040      C1041   1.406       .  A
C1040      H1045   1.083       .  S
C1041      C1042   1.410       .  A
C1042      F1046   1.357       .  S
C1043      C1048   1.406       .  A
C1043      C1052   1.403       .  A
C1048      C1049   1.396       .  A
C1048      F1053   1.357       .  S
C1049      C1050   1.400       .  A
C1049      H1054   1.082       .  S
C1050      C1051   1.405       .  A
C1051      C1052   1.399       .  A
C1051      F1055   1.358       .  S
C1052      H1056   1.083       .  S
C1057      C1058   1.404       .  A
C1057      C1062   1.400       .  A
C1057      H1067   1.083       .  S
C1058      C1063   1.481       .  S
C1058      C1059   1.405       .  A
C1059      C1060   1.401       .  A
C1059      F1064   1.357       .  S
C1060      C1061   1.406       .  A
C1060      H1065   1.083       .  S
C1061      C1062   1.407       .  A
C1062      F1066   1.357       .  S
C1063      C1068   1.404       .  A
C1063      C1072   1.406       .  A
C1068      C1069   1.395       .  A
C1068      F1073   1.358       .  S
C1069      C1070   1.404       .  A
C1069      H1074   1.084       .  S
C1070      C1071   1.406       .  A
C1071      C1072   1.405       .  A
C1071      F1075   1.357       .  S
C1072      H1076   1.083       .  S
C1077      C1078   1.400       .  A
C1077      C1082   1.396       .  A
C1077      H1087   1.083       .  S
C1078      C1083   1.473       .  S
C1078      C1079   1.404       .  A
C1079      C1080   1.397       .  A
C1079      F1084   1.357       .  S
C1080      C1081   1.406       .  A
C1080      H1085   1.083       .  S
C1081      C1082   1.408       .  A
C1082      F1086   1.354       .  S
C1083      C1088   1.404       .  A
C1083      C1092   1.402       .  A
C1088      C1089   1.401       .  A
C1088      F1093   1.357       .  S
C1089      C1090   1.403       .  A
C1089      H1094   1.082       .  S
C1090      C1091   1.404       .  A
C1091      C1092   1.394       .  A
C1091      F1095   1.358       .  S
C1092      H1096   1.083       .  S
C1097      C1098   1.409       .  A
C1097      C1102   1.404       .  A
C1097      H1107   1.084       .  S
C1098      C1103   1.495       .  S
C1098      C1099   1.411       .  A
C1099      C1100   1.398       .  A
C1099      F1104   1.358       .  S
C1100      C1101   1.400       .  A
C1100      H1105   1.085       .  S
C1101      C1102   1.403       .  A
C1102      F1106   1.357       .  S
C1103      C1108   1.411       .  A
C1103      C1112   1.406       .  A
C1108      C1109   1.406       .  A
C1108      F1113   1.357       .  S
C1109      C1110   1.405       .  A
C1109      H1114   1.081       .  S
C1110      C1111   1.409       .  A
C1111      C1112   1.396       .  A
C1111      F1115   1.358       .  S
C1112      H1116   1.082       .  S
C1117      C1118   1.403       .  A
C1117      C1122   1.395       .  A
C1117      H1127   1.083       .  S
C1118      C1123   1.486       .  S
C1118      C1119   1.409       .  A
C1119      C1120   1.402       .  A
C1119      F1124   1.357       .  S
C1120      C1121   1.406       .  A
C1120      H1125   1.082       .  S
C1121      C1122   1.409       .  A
C1122      F1126   1.358       .  S
C1123      C1128   1.406       .  A
C1123      C1132   1.401       .  A
C1128      C1129   1.400       .  A
C1128      F1133   1.358       .  S
C1129      C1130   1.411       .  A
C1129      H1134   1.072       .  S
C1130      C1131   1.414       .  A
C1131      C1132   1.397       .  A
C1131      F1135   1.358       .  S
C1132      H1136   1.082       .  S
C1137      C1138   1.402       .  A
C1137      C1142   1.398       .  A
C1137      H1147   1.084       .  S
C1138      C1143   1.485       .  S
C1138      C1139   1.407       .  A
C1139      C1140   1.401       .  A
C1139      F1144   1.357       .  S
C1140      C1141   1.407       .  A
C1140      H1145   1.083       .  S
C1141      C1142   1.413       .  A
C1142      F1146   1.357       .  S
C1143      C1148   1.404       .  A
C1143      C1152   1.403       .  A
C1148      C1149   1.398       .  A
C1148      F1153   1.358       .  S
C1149      C1150   1.412       .  A
C1149      H1154   1.078       .  S
C1150      C1151   1.413       .  A
C1151      C1152   1.401       .  A
C1151      F1155   1.357       .  S
C1152      H1156   1.083       .  S
C1157      C1158   1.403       .  A
C1157      C1162   1.401       .  A
C1157      H1167   1.084       .  S
C1158      C1163   1.482       .  S
C1158      C1159   1.403       .  A
C1159      C1160   1.394       .  A
C1159      F1164   1.358       .  S
C1160      C1161   1.412       .  A
C1160      H1165   1.078       .  S
C1161      C1162   1.414       .  A
C1162      F1166   1.358       .  S
C1163      C1168   1.406       .  A
C1163      C1172   1.403       .  A
C1168      C1169   1.398       .  A
C1168      F1173   1.358       .  S
C1169      C1170   1.406       .  A
C1169      H1174   1.083       .  S
C1170      C1171   1.409       .  A
C1171      C1172   1.399       .  A
C1171      F1175   1.357       .  S
C1172      H1176   1.083       .  S
C1177      C1178   1.402       .  A
C1177      C1182   1.399       .  A
C1177      H1187   1.083       .  S
C1178      C1183   1.485       .  S
C1178      C1179   1.404       .  A
C1179      C1180   1.401       .  A
C1179      F1184   1.357       .  S
C1180      C1181   1.412       .  A
C1180      H1185   1.076       .  S
C1181      C1182   1.415       .  A
C1182      F1186   1.358       .  S
C1183      C1188   1.405       .  A
C1183      C1192   1.406       .  A
C1188      C1189   1.398       .  A
C1188      F1193   1.357       .  S
C1189      C1190   1.407       .  A
C1189      H1194   1.083       .  S
C1190      C1191   1.408       .  A
C1191      C1192   1.401       .  A
C1191      F1195   1.357       .  S
C1192      H1196   1.083       .  S
C1197      C1198   1.406   1_556  A
C1197      C1202   1.397       .  A
C1197      H1207   1.080       .  S
C1198      C1203   1.482       .  S
C1198      C1199   1.406       .  A
C1199      C1200   1.398       .  A
C1199      F1204   1.357       .  S
C1200      C1201   1.406   1_554  A
C1200      H1205   1.081       .  S
C1201      C1202   1.406       .  A
C1202      F1206   1.357       .  S
C1203      C1208   1.405       .  A
C1203      C1212   1.406       .  A
C1208      C1209   1.394       .  A
C1208      F1213   1.358       .  S
C1209      C1210   1.405       .  A
C1209      H1214   1.081       .  S
C1210      C1211   1.408       .  A
C1211      C1212   1.401       .  A
C1211      F1215   1.357   1_554  S
C1212      H1216   1.080   1_554  S
