geometry optimzed in LAMMPS
_audit_creation_date              2020-11-30 
_audit_creation_method            'lammps2cif' 
_symmetry_space_group_name_H-M    'P1' 
_symmetry_Int_Tables_number       1 
_symmetry_cell_setting            triclinic 
loop_ 
_symmetry_equiv_pos_as_xyz 
  x,y,z 
_cell_length_a                    45.86459932671696 
_cell_length_b                    46.18295883431322 
_cell_length_c                    37.77453858276514 
_cell_angle_alpha                 89.82186303772646 
_cell_angle_beta                  90.06269576897955 
_cell_angle_gamma                 124.32768917092594 
loop_ 
_atom_site_label 
_atom_site_type_symbol 
_atom_site_fract_x 
_atom_site_fract_y 
_atom_site_fract_z 
_atom_site_charge 
N1          N  0.14004759  0.35081241  0.45919885    -0.27380
N2          N  0.15036224  0.38135474  0.44492277    -0.35240
C3          C  0.13110291  0.37579784  0.41575701     0.00960
C4          C  0.10721598  0.34007986  0.41169072     0.06980
C5          C  0.11370331  0.32495309  0.43958776    -0.06120
H6          H  0.13406252  0.39628492  0.39890259     0.07650
H7          H  0.10082587  0.29728559  0.44490576     0.08850
Cu8        Cu  0.19035873  0.42933270  0.46511702     0.44170
Cu9        Cu  0.16323869  0.34603231  0.50395347     0.41990
Cu10       Cu  0.24239408  0.42801959  0.53504587     0.43880
N11         N  0.23380698  0.47431318  0.48652286    -0.34770
N12         N  0.25422771  0.47398353  0.51099691    -0.29020
C13         C  0.28118364  0.50722993  0.51786834    -0.05120
C14         C  0.27709979  0.52943775  0.49702338     0.07090
C15         C  0.24672107  0.50767640  0.47763417     0.00890
H16         H  0.30165514  0.51470996  0.53723907     0.08540
H17         H  0.23512664  0.51548157  0.45810882     0.07620
N18         N  0.22210832  0.37910832  0.55768389    -0.36220
N19         N  0.19313986  0.34951348  0.54698656    -0.28400
C20         C  0.18770993  0.32297995  0.56747220    -0.03640
C21         C  0.21447366  0.33660102  0.59231450     0.04970
C22         C  0.23590118  0.37213982  0.58511462     0.03070
H23         H  0.16664583  0.29571260  0.56357267     0.08170
H24         H  0.26001322  0.39150902  0.59866556     0.07000
N25         N  0.37799916  0.12879856  0.04626947    -0.27380
N26         N  0.40933248  0.13756130  0.05726487    -0.35240
C27         C  0.40525591  0.11784291  0.08537804     0.00960
C28         C  0.36963261  0.09539728  0.09272057     0.06980
C29         C  0.35298821  0.10295031  0.06723652    -0.06120
H30         H  0.42670031  0.11892750  0.09880734     0.07650
H31         H  0.32491682  0.08948165  0.06290645     0.08850
Cu32       Cu  0.45659850  0.17378752  0.03275820     0.44170
Cu33       Cu  0.37193031  0.15150365  0.00175127     0.41990
Cu34       Cu  0.45622657  0.22613137  0.96454912     0.43880
N35         N  0.50213265  0.21266940  0.00754517    -0.34770
N36         N  0.50254189  0.23370785  0.98350421    -0.29020
C37         C  0.53618266  0.25746798  0.97356305    -0.05120
C38         C  0.55773980  0.25049458  0.99195087     0.07090
C39         C  0.53524750  0.22187885  0.01314379     0.00890
H40         H  0.54426247  0.27781191  0.95398486     0.08540
H41         H  0.54248912  0.20920130  0.03188465     0.07620
N42         N  0.40636122  0.20722935  0.94452109    -0.36220
N43         N  0.37622165  0.17996894  0.95695593    -0.28400
C44         C  0.34973071  0.17409714  0.93585555    -0.03640
C45         C  0.36387390  0.19853060  0.90863985     0.04970
C46         C  0.39976188  0.21946361  0.91549374     0.03070
H47         H  0.32220154  0.15331058  0.93983622     0.08170
H48         H  0.41981084  0.24248366  0.90113504     0.07000
N49         N  0.14230287  0.34911360  0.04414466    -0.27380
N50         N  0.14898419  0.37951876  0.05489015    -0.35240
C51         C  0.12866218  0.37409082  0.08309068     0.00960
C52         C  0.10860511  0.33868105  0.09066603     0.06980
C53         C  0.11768816  0.32348256  0.06545347    -0.06120
H54         H  0.12835467  0.39439472  0.09692233     0.07650
H55         H  0.10660183  0.29585361  0.06224804     0.08850
Cu56       Cu  0.18605515  0.42722800  0.03166305     0.44170
Cu57       Cu  0.16598594  0.34424117  0.00004925     0.41990
Cu58       Cu  0.24091693  0.42647848  0.96422948     0.43880
N59         N  0.22958026  0.47232086  0.01027568    -0.34770
N60         N  0.25103292  0.47217575  0.98704914    -0.29020
C61         C  0.27823705  0.50546277  0.98071357    -0.05120
C62         C  0.27328798  0.52751168  0.00058421     0.07090
C63         C  0.24212659  0.50562501  0.01886759     0.00890
H64         H  0.29969553  0.51306707  0.96259372     0.08540
H65         H  0.22997009  0.51327235  0.03777877     0.07620
N66         N  0.22132407  0.37740587  0.94264183    -0.36220
N67         N  0.19361136  0.34767435  0.95511140    -0.28400
C68         C  0.18758421  0.32099249  0.93469866    -0.03640
C69         C  0.21268563  0.33465090  0.90820535     0.04970
C70         C  0.23383584  0.37035016  0.91415917     0.03070
H71         H  0.16713162  0.29363198  0.93943772     0.08170
H72         H  0.25686347  0.38972294  0.89912578     0.07000
N73         N  0.76509504  0.18634805  0.44906304    -0.27380
N74         N  0.76520602  0.21417263  0.44081855    -0.35240
C75         C  0.78628783  0.23014755  0.41261698     0.00960
C76         C  0.79969744  0.21101986  0.40223428     0.06980
C77         C  0.78572848  0.18353631  0.42621621    -0.06120
H78         H  0.79255670  0.25473673  0.40195492     0.07650
H79         H  0.79090443  0.16342287  0.42758535     0.08850
Cu80       Cu  0.73640694  0.22830329  0.46892207     0.44170
Cu81       Cu  0.73971222  0.15583189  0.49296922     0.41990
Cu82       Cu  0.67785206  0.16742960  0.53857295     0.43880
N83         N  0.69958045  0.23229523  0.49589097    -0.34770
N84         N  0.67690486  0.20931373  0.51946569    -0.29020
C85         C  0.65491710  0.21848491  0.52917623    -0.05120
C86         C  0.66466396  0.24891140  0.51124812     0.07090
C87         C  0.69306152  0.25690376  0.49048893     0.00890
H88         H  0.63362944  0.20424471  0.54809344     0.08540
H89         H  0.70719355  0.27835709  0.47182839     0.07620
N90         N  0.69125008  0.13342243  0.55574896    -0.36220
N91         N  0.71494062  0.13056898  0.53947283    -0.28400
C92         C  0.72069517  0.10959722  0.55832309    -0.03640
C93         C  0.69897095  0.09763718  0.58792209     0.04970
C94         C  0.68077958  0.11361822  0.58526846     0.03070
H95         H  0.74043569  0.10499903  0.55110288     0.08170
H96         H  0.66159085  0.11142527  0.60369087     0.07000
N97         N  0.76355365  0.18227304  0.05228556    -0.27380
N98         N  0.76400236  0.21028490  0.06069350    -0.35240
C99         C  0.78656051  0.22692337  0.08767030     0.00960
C100        C  0.80101513  0.20849508  0.09648519     0.06980
C101        C  0.78568444  0.18020210  0.07379631    -0.06120
H102        H  0.79225461  0.25082823  0.09967123     0.07650
H103        H  0.79127308  0.16040846  0.07208051     0.08850
Cu104      Cu  0.73471250  0.22510180  0.03456448     0.44170
Cu105      Cu  0.73606597  0.15058439  0.00952086     0.41990
Cu106      Cu  0.68303598  0.17225832  0.95981609     0.43880
N107        N  0.69972840  0.23183320  0.00746693    -0.34770
N108        N  0.67932431  0.21134697  0.98136415    -0.29020
C109        C  0.65793583  0.22116676  0.97131077    -0.05120
C110        C  0.66582340  0.24955873  0.99169683     0.07090
C111        C  0.69245230  0.25566435  0.01424325     0.00890
H112        H  0.63855275  0.20895427  0.95035450     0.08540
H113        H  0.70501002  0.27541659  0.03468598     0.07620
N114        N  0.69475145  0.13729333  0.94253521    -0.36220
N115        N  0.71345113  0.12889688  0.96101901    -0.28400
C116        C  0.71619758  0.10566815  0.94262001    -0.03640
C117        C  0.69883424  0.09947401  0.91064596     0.04970
C118        C  0.68527410  0.11974865  0.91175183     0.03070
H119        H  0.72897060  0.09354732  0.95254454     0.08170
H120        H  0.66955193  0.12154723  0.89163007     0.07000
C121        C  0.64923362  0.26905908  0.99038768     0.03040
C122        C  0.61237665  0.25110130  0.98976021    -0.13110
C123        C  0.59649596  0.26967137  0.99035646     0.00540
C124        C  0.61779889  0.30646953  0.99125284    -0.11640
C125        C  0.65473889  0.32463538  0.99174749     0.03030
C126        C  0.67028304  0.30579907  0.99128286    -0.11060
H127        H  0.59605552  0.22267663  0.98950369     0.08620
H128        H  0.60567241  0.32091908  0.99207943     0.06150
H129        H  0.69878858  0.31973085  0.99208158     0.06000
N130        N  0.81116085  0.54448075  0.95977538    -0.27380
N131        N  0.80220983  0.51455699  0.94505299    -0.35240
C132        C  0.82247896  0.52146866  0.91636546     0.00960
C133        C  0.84557578  0.55736411  0.91306812     0.06980
C134        C  0.83778019  0.57125247  0.94098598    -0.06120
H135        H  0.82070113  0.50176921  0.89928446     0.07650
H136        H  0.85013900  0.59871530  0.94689382     0.08850
Cu137      Cu  0.76293085  0.46522996  0.96382883     0.44170
Cu138      Cu  0.78561081  0.54736907  0.00381060     0.41990
Cu139      Cu  0.71131740  0.46257709  0.03584025     0.43880
N140        N  0.72023554  0.41879682  0.98446432    -0.34770
N141        N  0.70007705  0.41791630  0.00998689    -0.29020
C142        C  0.67331311  0.38441156  0.01608846    -0.05120
C143        C  0.67720738  0.36320195  0.99364890     0.07090
C144        C  0.70733585  0.38581838  0.97412489     0.00890
H145        H  0.65302198  0.37607233  0.03591253     0.08540
H146        H  0.71867643  0.37886690  0.95351591     0.07620
N147        N  0.72711694  0.51032438  0.05788305    -0.36220
N148        N  0.75363586  0.54124353  0.04628083    -0.28400
C149        C  0.75536294  0.56647696  0.06592856    -0.03640
C150        C  0.72841740  0.55061776  0.09077732     0.04970
C151        C  0.71153800  0.51500989  0.08522009     0.03070
H152        H  0.77440391  0.59432241  0.06200744     0.08170
H153        H  0.68983195  0.49381543  0.10017173     0.07000
O154        O  0.98732616  0.25209054  0.21277588    -0.73040
O155        O  0.91427630  0.22367094  0.28864534    -0.74020
O156        O  0.91347274  0.22275790  0.21372932    -0.62640
O157        O  0.98775634  0.25281869  0.28837979    -0.71050
O158        O  0.99899603  0.30634386  0.28695358    -0.70600
O159        O  0.92523518  0.27642069  0.21261829    -0.61850
O160        O  0.92534366  0.27708491  0.28700490    -0.74360
O161        O  0.99789844  0.30533243  0.21203871    -0.73140
Cu162      Cu  0.95038583  0.23592746  0.25092433     1.04560
Cu163      Cu  0.96236335  0.29315773  0.24971934     1.04330
C164        C  0.00350527  0.28311512  0.19999865     0.93160
C165        C  0.90801791  0.24588104  0.29931400     0.92300
C166        C  0.90743656  0.24479055  0.20168968     0.84450
C167        C  0.00495477  0.28441818  0.29940726     0.90720
N168        N  0.23636449  0.75938964  0.45827622    -0.27380
N169        N  0.26039421  0.75617581  0.44325144    -0.35240
C170        C  0.27305672  0.77696764  0.41438865     0.00960
C171        C  0.25631119  0.79423913  0.41126417     0.06980
C172        C  0.23282434  0.78187082  0.43934657    -0.06120
H173        H  0.29291813  0.77926871  0.39687421     0.07650
H174        H  0.21350651  0.78751681  0.44518783     0.08850
Cu175      Cu  0.27277511  0.72185061  0.46192460     0.44170
Cu176      Cu  0.20862261  0.73314903  0.50355586     0.41990
Cu177      Cu  0.21228897  0.66138522  0.53046185     0.43880
N178        N  0.27450375  0.68126041  0.48348259    -0.34770
N179        N  0.25127659  0.65838799  0.50677624    -0.29020
C180        C  0.25844409  0.63450182  0.51393829    -0.05120
C181        C  0.28783451  0.64289146  0.49464812     0.07090
C182        C  0.29746171  0.67276978  0.47571728     0.00890
H183        H  0.24376190  0.61301605  0.53246682     0.08540
H184        H  0.31908922  0.68686538  0.45713575     0.07620
N185        N  0.18165913  0.67485381  0.55619194    -0.36220
N186        N  0.18163491  0.70242542  0.54712800    -0.28400
C187        C  0.16097603  0.70559119  0.56967400    -0.03640
C188        C  0.14703061  0.67857561  0.59436578     0.04970
C189        C  0.16058669  0.65937268  0.58449938     0.03070
H190        H  0.15645696  0.72615087  0.56809403     0.08170
H191        H  0.15515622  0.63543461  0.59599814     0.07000
C192        C  0.30480678  0.62363356  0.49446601     0.03040
C193        C  0.28391168  0.58685870  0.49519779    -0.13110
C194        C  0.29954630  0.56809741  0.49617988     0.00540
C195        C  0.33648096  0.58638857  0.49636959    -0.11640
C196        C  0.35771386  0.62320764  0.49560655     0.03030
C197        C  0.34172533  0.64170590  0.49457356    -0.11060
H198        H  0.25538600  0.57278868  0.49521792     0.08620
H199        H  0.34867041  0.57200031  0.49736070     0.06150
H200        H  0.35799804  0.67012641  0.49431923     0.06000
N201        N  0.57589286  0.75998528  0.55386781    -0.27380
N202        N  0.54525995  0.75425109  0.56311044    -0.35240
C203        C  0.55065107  0.77688456  0.58865716     0.00960
C204        C  0.58646140  0.79836330  0.59545046     0.06980
C205        C  0.60170789  0.78664167  0.57328772    -0.06120
H206        H  0.52996273  0.77786675  0.60099068     0.07650
H207        H  0.62955203  0.79754305  0.57048624     0.08850
Cu208      Cu  0.49752996  0.71793148  0.53921898     0.44170
Cu209      Cu  0.58067019  0.73268959  0.51348473     0.41990
Cu210      Cu  0.49725119  0.66340371  0.47216461     0.43880
N211        N  0.45212114  0.67955572  0.51329195    -0.34770
N212        N  0.45152269  0.65811157  0.48976749    -0.29020
C213        C  0.41789160  0.63475262  0.47961956    -0.05120
C214        C  0.39650485  0.64235203  0.49725128     0.07090
C215        C  0.41911621  0.67097124  0.51825370     0.00890
H216        H  0.40966392  0.61402243  0.46061217     0.08540
H217        H  0.41198008  0.68391937  0.53663230     0.07620
N218        N  0.54716071  0.67815711  0.45575930    -0.36220
N219        N  0.57721006  0.70324209  0.47042366    -0.28400
C220        C  0.60434013  0.70790008  0.45138261    -0.03640
C221        C  0.59078093  0.68445422  0.42348005     0.04970
C222        C  0.55446089  0.66620440  0.42708045     0.03070
H223        H  0.63170772  0.72837069  0.45638264     0.08170
H224        H  0.53471498  0.64645057  0.40935927     0.07000
N225        N  0.37729826  0.12944626  0.45179821    -0.27380
N226        N  0.40798621  0.13491697  0.44328179    -0.35240
C227        C  0.40347275  0.11471158  0.41551690     0.00960
C228        C  0.36838659  0.09593446  0.40575129     0.06980
C229        C  0.35238730  0.10568640  0.42937523    -0.06120
H230        H  0.42404909  0.11308599  0.40388322     0.07650
H231        H  0.32455275  0.09513975  0.43116968     0.08850
Cu232      Cu  0.45473263  0.16895752  0.46983181     0.44170
Cu233      Cu  0.37116321  0.15288504  0.49532227     0.41990
Cu234      Cu  0.45402606  0.22527194  0.53413068     0.43880
N235        N  0.49981103  0.20883908  0.49489020    -0.34770
N236        N  0.50004154  0.23104904  0.51704706    -0.29020
C237        C  0.53360407  0.25540579  0.52659014    -0.05120
C238        C  0.55535949  0.24774138  0.50993000     0.07090
C239        C  0.53302839  0.21801208  0.49015500     0.00890
H240        H  0.54151820  0.27680507  0.54460614     0.08540
H241        H  0.54046865  0.20466372  0.47271936     0.07620
N242        N  0.40403145  0.20783926  0.55264680    -0.36220
N243        N  0.37420639  0.18077762  0.53979833    -0.28400
C244        C  0.34725657  0.17455495  0.56029941    -0.03640
C245        C  0.36050306  0.19925376  0.58736081     0.04970
C246        C  0.39674841  0.21985417  0.58123300     0.03070
H247        H  0.32042118  0.15276823  0.55590592     0.08170
H248        H  0.41676842  0.24195197  0.59664414     0.07000
C249        C  0.64754701  0.26799184  0.51223573     0.03040
C250        C  0.66806345  0.30478889  0.51127816    -0.13110
C251        C  0.65193227  0.32311975  0.51044198     0.00540
C252        C  0.61493969  0.30432307  0.51059545    -0.11640
C253        C  0.59417714  0.26751411  0.51153220     0.03030
C254        C  0.61063822  0.24951436  0.51251232    -0.11060
H255        H  0.69660939  0.31915700  0.51081078     0.08620
H256        H  0.60233133  0.31830933  0.50962693     0.06150
H257        H  0.59470349  0.22109346  0.51283939     0.06000
N258        N  0.81001433  0.54243915  0.54309965    -0.27380
N259        N  0.80051445  0.51197140  0.55694949    -0.35240
C260        C  0.82143832  0.51762594  0.58462078     0.00960
C261        C  0.84577841  0.55334214  0.58817122     0.06980
C262        C  0.83748251  0.56839865  0.56171687    -0.06120
H263        H  0.81874981  0.49709701  0.60115473     0.07650
H264        H  0.85081668  0.59607100  0.55602419     0.08850
Cu265      Cu  0.75998079  0.46350016  0.53820657     0.44170
Cu266      Cu  0.78496271  0.54631165  0.49923914     0.41990
Cu267      Cu  0.70444885  0.46238782  0.47195996     0.43880
N268        N  0.71641006  0.41744540  0.51859864    -0.34770
N269        N  0.69456340  0.41690102  0.49537228    -0.29020
C270        C  0.66799545  0.38334946  0.48912237    -0.05120
C271        C  0.67378000  0.36182025  0.50909536     0.07090
C272        C  0.70479869  0.38434840  0.52732389     0.00890
H273        H  0.64658002  0.37521137  0.47076644     0.08540
H274        H  0.71767403  0.37724365  0.54600207     0.07620
N275        N  0.72439040  0.51032316  0.44716063    -0.36220
N276        N  0.75379246  0.54035997  0.45613497    -0.28400
C277        C  0.75946819  0.56536641  0.43311348    -0.03640
C278        C  0.73258208  0.55033549  0.40822200     0.04970
C279        C  0.71054287  0.51553345  0.41849390     0.03070
H280        H  0.78167810  0.59250550  0.43430840     0.08170
H281        H  0.68565120  0.49541859  0.40687139     0.07000
N282        N  0.18110939  0.70498938  0.95648979    -0.27380
N283        N  0.18455881  0.68100197  0.94218224    -0.35240
C284        C  0.16351871  0.66762669  0.91354292     0.00960
C285        C  0.14568995  0.68368657  0.91017125     0.06980
C286        C  0.15772837  0.70741863  0.93764395    -0.06120
H287        H  0.16095915  0.64736568  0.89676642     0.07650
H288        H  0.15042411  0.72545680  0.94337266     0.08850
Cu289      Cu  0.21741263  0.66772188  0.96329338     0.44170
Cu290      Cu  0.20781486  0.73311351  0.00116663     0.41990
Cu291      Cu  0.27065536  0.71901816  0.03990928     0.43880
N292        N  0.25355096  0.66115282  0.98869305    -0.34770
N293        N  0.27409768  0.68083528  0.01517867    -0.29020
C294        C  0.29533531  0.67052369  0.02421273    -0.05120
C295        C  0.28729338  0.64266548  0.00284470     0.07090
C296        C  0.26064904  0.63735987  0.98075182     0.00890
H297        H  0.31449082  0.68180676  0.04543536     0.08540
H298        H  0.24766439  0.61790129  0.96009324     0.07620
N299        N  0.25836957  0.75230504  0.06147777    -0.36220
N300        N  0.23523300  0.75722406  0.04703345    -0.28400
C301        C  0.23286203  0.77994539  0.06678792    -0.03640
C302        C  0.25525232  0.78955682  0.09546413     0.04970
C303        C  0.27135091  0.77185486  0.09099834     0.03070
H304        H  0.21691943  0.78959109  0.05989005     0.08170
H305        H  0.29111849  0.77319223  0.10792489     0.07000
C306        C  0.30313814  0.62237804  0.00373122     0.03040
C307        C  0.28147018  0.58563740  0.00240509    -0.13110
C308        C  0.29630922  0.56609994  0.00227064     0.00540
C309        C  0.33313594  0.58356252  0.00348438    -0.11640
C310        C  0.35505952  0.62029263  0.00468117     0.03030
C311        C  0.33992605  0.63959124  0.00497762    -0.11060
H312        H  0.25304217  0.57225546  0.00123689     0.08620
H313        H  0.34474040  0.56861744  0.00297363     0.06150
H314        H  0.35678914  0.66799799  0.00550456     0.06000
N315        N  0.57316793  0.76288847  0.95238368    -0.27380
N316        N  0.54191705  0.75025641  0.93810376    -0.35240
C317        C  0.54565928  0.76937057  0.90961379     0.00960
C318        C  0.58088923  0.79633691  0.90621179     0.06980
C319        C  0.59777825  0.79105069  0.93343829    -0.06120
H320        H  0.52399439  0.76384390  0.89290883     0.07650
H321        H  0.62565728  0.80708342  0.93963421     0.08850
Cu322      Cu  0.49457770  0.71087340  0.95965198     0.44170
Cu323      Cu  0.57911659  0.74016204  0.99690982     0.41990
Cu324      Cu  0.49476213  0.66015614  0.02871931     0.43880
N325        N  0.44911271  0.67392724  0.98592739    -0.34770
N326        N  0.44840840  0.65341197  0.01079389    -0.29020
C327        C  0.41479990  0.63105111  0.02174415    -0.05120
C328        C  0.39371239  0.63856928  0.00315566     0.07090
C329        C  0.41638581  0.66593303  0.98079566     0.00890
H330        H  0.40641312  0.61118126  0.04194691     0.08540
H331        H  0.40948159  0.67847578  0.96150543     0.07620
N332        N  0.54503246  0.67802469  0.04712847    -0.36220
N333        N  0.57485395  0.70736315  0.03737356    -0.28400
C334        C  0.60122613  0.71242652  0.05815032    -0.03640
C335        C  0.58756517  0.68472305  0.08196300     0.04970
C336        C  0.55184549  0.66351306  0.07385739     0.03070
H337        H  0.62777191  0.73567414  0.05694662     0.08170
H338        H  0.53175962  0.63972937  0.08732634     0.07000
O339        O  0.61896693  0.91198437  0.71035338    -0.73040
O340        O  0.63921560  0.98015913  0.78629086    -0.74020
O341        O  0.64294529  0.98298045  0.71223573    -0.62640
O342        O  0.61532423  0.90932594  0.78491118    -0.71050
O343        O  0.67037012  0.92450923  0.78932868    -0.70600
O344        O  0.69799665  0.99729061  0.71328499    -0.61850
O345        O  0.69465689  0.99664278  0.78892135    -0.74360
O346        O  0.67344492  0.92504495  0.71364718    -0.73140
Cu347      Cu  0.62732361  0.94554166  0.74834884     1.04560
Cu348      Cu  0.68619505  0.96143111  0.75137710     1.04330
C349        C  0.64260407  0.90752281  0.69987806     0.93160
C350        C  0.66993517  0.99955191  0.79967245     0.92300
C351        C  0.67474929  0.00181109  0.70127482     0.84450
C352        C  0.63813417  0.90543468  0.79927122     0.90720
O353        O  0.66784209  0.59512496  0.28910140    -0.73040
O354        O  0.62723242  0.62628143  0.21724633    -0.74020
O355        O  0.66380580  0.59399403  0.21465652    -0.62640
O356        O  0.63127197  0.62800646  0.29233684    -0.71050
O357        O  0.68211619  0.68036904  0.29033194    -0.70600
O358        O  0.71528667  0.64548120  0.21242660    -0.61850
O359        O  0.67818181  0.67819231  0.21358917    -0.74360
O360        O  0.71891601  0.64728510  0.28815518    -0.73140
Cu361      Cu  0.64585650  0.60919901  0.25350678     1.04560
Cu362      Cu  0.70046535  0.66482551  0.25108030     1.04330
C363        C  0.69951563  0.61588519  0.29998203     0.93160
C364        C  0.64631780  0.65662411  0.20317873     0.92300
C365        C  0.69449892  0.61413562  0.20107023     0.84450
C366        C  0.65151688  0.65930244  0.30386172     0.90720
O367        O  0.34472672  0.98516580  0.21541877    -0.73040
O368        O  0.31656885  0.91194992  0.28953381    -0.74020
O369        O  0.32025236  0.91381504  0.21525693    -0.62640
O370        O  0.34131955  0.98352358  0.29043392    -0.71050
O371        O  0.28681177  0.97048863  0.28709762    -0.70600
O372        O  0.26501962  0.89815174  0.21269669    -0.61850
O373        O  0.26165570  0.89807482  0.28812147    -0.74360
O374        O  0.28972715  0.97036294  0.21154628    -0.73140
Cu375      Cu  0.33257144  0.94921745  0.25277231     1.04560
Cu376      Cu  0.27378977  0.93375962  0.24977627     1.04330
C377        C  0.32181470  0.98887617  0.20104297     0.93160
C378        C  0.28467658  0.89336443  0.30037299     0.92300
C379        C  0.28937306  0.89461815  0.20209974     0.84450
C380        C  0.31763498  0.98793790  0.30087228     0.90720
O381        O  0.95352284  0.59256857  0.78949721    -0.73040
O382        O  0.02790213  0.62019494  0.71639801    -0.74020
O383        O  0.02650626  0.62128159  0.79081678    -0.62640
O384        O  0.95507255  0.59154246  0.71433990    -0.71050
O385        O  0.96520875  0.64444970  0.71239633    -0.70600
O386        O  0.03874683  0.67519354  0.78873434    -0.61850
O387        O  0.03875197  0.67342252  0.71322055    -0.74360
O388        O  0.96504231  0.64619829  0.78842318    -0.73140
Cu389      Cu  0.99024925  0.60457415  0.75284585     1.04560
Cu390      Cu  0.00229333  0.66176200  0.75066887     1.04330
C391        C  0.94796749  0.61503008  0.80092407     0.93160
C392        C  0.04491556  0.65098019  0.70305136     0.92300
C393        C  0.04413964  0.65294065  0.80152748     0.84450
C394        C  0.94913112  0.61309293  0.70070336     0.90720
O395        O  0.23011301  0.24320968  0.71209785    -0.73040
O396        O  0.26327714  0.20656048  0.78824372    -0.74020
O397        O  0.22728494  0.24055507  0.78800966    -0.62640
O398        O  0.26631959  0.20944320  0.71240175    -0.71050
O399        O  0.31730148  0.26143946  0.71513004    -0.70600
O400        O  0.27935830  0.29177922  0.79016173    -0.61850
O401        O  0.31481255  0.25837631  0.78939070    -0.74360
O402        O  0.28167963  0.29468146  0.71516303    -0.73140
Cu403      Cu  0.24477388  0.22302378  0.75010008     1.04560
Cu404      Cu  0.29988635  0.27830080  0.75254062     1.04330
C405        C  0.25131625  0.27468850  0.70106501     0.93160
C406        C  0.29445474  0.22698406  0.80069516     0.92300
C407        C  0.24789053  0.27097250  0.80158659     0.84450
C408        C  0.29825664  0.23073329  0.70205842     0.90720
C409        C  0.62859423  0.83631075  0.86376633    -0.20400
C410        C  0.59654218  0.82555541  0.88029012    -0.06960
C411        C  0.58028383  0.84324027  0.87211925     0.13900
C412        C  0.59518382  0.86937226  0.84612051    -0.20450
C413        C  0.62621848  0.87905081  0.82811077    -0.06970
C414        C  0.64378300  0.86293868  0.83782725     0.13890
C415        C  0.67791400  0.87289584  0.82068779    -0.23800
H416        H  0.64143716  0.82329489  0.87068822     0.15180
H417        H  0.58224224  0.88242526  0.83981980     0.15210
C418        C  0.54807897  0.83614216  0.89149876    -0.23750
H419        H  0.68718469  0.85682558  0.83087995     0.05420
H420        H  0.69883984  0.90076750  0.82638836     0.08650
H421        H  0.67424999  0.86885309  0.79164979     0.08650
H422        H  0.55196177  0.83633761  0.92053468     0.08630
H423        H  0.52426406  0.81075047  0.88317648     0.08630
H424        H  0.54286870  0.85640686  0.88558819     0.05410
C425        C  0.65353438  0.68392929  0.14408488    -0.20400
C426        C  0.63178589  0.66588135  0.17339075    -0.06960
C427        C  0.59607736  0.65485263  0.17230990     0.13900
C428        C  0.58351962  0.66293954  0.14278585    -0.20450
C429        C  0.60477157  0.68019330  0.11303890    -0.06970
C430        C  0.64041051  0.69064020  0.11363407     0.13890
C431        C  0.66442824  0.70715638  0.08204722    -0.23800
H432        H  0.68066485  0.69164735  0.14447342     0.15180
H433        H  0.55646627  0.65535040  0.14301891     0.15210
C434        C  0.57087393  0.63524024  0.20235897    -0.23750
H435        H  0.68949393  0.70908260  0.08578836     0.05420
H436        H  0.67163467  0.73420267  0.07809594     0.08650
H437        H  0.65134937  0.69111708  0.05803376     0.08650
H438        H  0.58163884  0.65135823  0.22635156     0.08630
H439        H  0.56691867  0.60947186  0.20647832     0.08630
H440        H  0.54445855  0.63010641  0.19748443     0.05410
C441        C  0.29858308  0.84146735  0.13069247    -0.20400
C442        C  0.26314333  0.81579416  0.12300672    -0.06960
C443        C  0.23640859  0.81552192  0.14192741     0.13900
C444        C  0.24593608  0.84158685  0.16732276    -0.20450
C445        C  0.28150179  0.86783155  0.17477985    -0.06970
C446        C  0.30826004  0.86744548  0.15619906     0.13890
C447        C  0.34713847  0.89421217  0.16238392    -0.23800
H448        H  0.31895345  0.84139453  0.11624492     0.15180
H449        H  0.22527546  0.84113284  0.18174956     0.15210
C450        C  0.19784278  0.78702624  0.13677141    -0.23750
H451        H  0.36381073  0.89032099  0.14443068     0.05420
H452        H  0.35421137  0.89200180  0.18989662     0.08650
H453        H  0.35378194  0.92097623  0.15746588     0.08650
H454        H  0.19333765  0.76093135  0.14049208     0.08630
H455        H  0.18916167  0.78880417  0.10997346     0.08630
H456        H  0.18092572  0.78922141  0.15606261     0.05410
C457        C  0.06139575  0.66085630  0.86442243    -0.20400
C458        C  0.07110147  0.66353573  0.82884858    -0.06960
C459        C  0.10532091  0.67315469  0.81994511     0.13900
C460        C  0.12926034  0.67979652  0.84706738    -0.20450
C461        C  0.11965326  0.67713331  0.88278161    -0.06970
C462        C  0.08526911  0.66747334  0.89162272     0.13890
C463        C  0.07298511  0.66232334  0.92952159    -0.23800
H464        H  0.03476023  0.65273614  0.87088315     0.15180
H465        H  0.15556806  0.68705603  0.84041488     0.15210
C466        C  0.11628052  0.67590777  0.78184248    -0.23750
H467        H  0.04465195  0.65249114  0.93134068     0.05420
H468        H  0.08827632  0.68753799  0.94396889     0.08650
H469        H  0.07640719  0.64288308  0.94265975     0.08650
H470        H  0.11382374  0.69561037  0.76783396     0.08630
H471        H  0.09901419  0.65006755  0.76880045     0.08630
H472        H  0.14404075  0.68396355  0.77943176     0.05410
C473        C  0.92238232  0.57593587  0.64780046    -0.20400
C474        C  0.92435643  0.60113313  0.67030848    -0.06960
C475        C  0.90242992  0.61308780  0.66342279     0.13900
C476        C  0.87758511  0.59772429  0.63573095    -0.20450
C477        C  0.87443088  0.57107647  0.61469519    -0.06970
C478        C  0.89810103  0.56107923  0.61994444     0.13890
C479        C  0.89891593  0.53573148  0.59554877    -0.23800
H480        H  0.94006646  0.56770458  0.65204203     0.15180
H481        H  0.85985750  0.60583350  0.63109138     0.15210
C482        C  0.90418141  0.64105364  0.68562229    -0.23750
H483        H  0.92135427  0.53363446  0.60166007     0.05420
H484        H  0.90192204  0.54483559  0.56771873     0.08650
H485        H  0.87443606  0.50911230  0.59826010     0.08650
H486        H  0.93058170  0.66603280  0.68288165     0.08630
H487        H  0.89924219  0.63280676  0.71378259     0.08630
H488        H  0.88417102  0.64607610  0.67731799     0.05410
C489        C  0.70697323  0.56953940  0.31955240    -0.20400
C490        C  0.71314198  0.60240126  0.32605021    -0.06960
C491        C  0.72898696  0.61963747  0.35824861     0.13900
C492        C  0.73569093  0.60226483  0.38427104    -0.20450
C493        C  0.72740922  0.56830698  0.37864670    -0.06970
C494        C  0.71446947  0.55250859  0.34506088     0.13890
C495        C  0.70964052  0.51846700  0.33507217    -0.23800
H496        H  0.69573132  0.55687280  0.29434938     0.15180
H497        H  0.74641943  0.61485964  0.40958621     0.15210
C498        C  0.73731955  0.65551080  0.36590604    -0.23750
H499        H  0.70477008  0.51326586  0.30623919     0.05420
H500        H  0.68649599  0.49615206  0.34882517     0.08650
H501        H  0.73382584  0.51951934  0.34161881     0.08650
H502        H  0.71284698  0.65481332  0.36412740     0.08630
H503        H  0.75687249  0.67470279  0.34643201     0.08630
H504        H  0.74857538  0.66465987  0.39281800     0.05410
C505        C  0.36231973  0.22167452  0.64758516    -0.20400
C506        C  0.34194621  0.20337429  0.61760890    -0.06960
C507        C  0.30587787  0.19186694  0.61714082     0.13900
C508        C  0.29219564  0.20028302  0.64564932    -0.20450
C509        C  0.31339230  0.22027198  0.67433694    -0.06970
C510        C  0.34887650  0.23072922  0.67548369     0.13890
C511        C  0.37280996  0.25096362  0.70627064    -0.23800
H512        H  0.38937909  0.22948070  0.64929940     0.15180
H513        H  0.26491250  0.19208894  0.64504134     0.15210
C514        C  0.28141333  0.17157022  0.58683567    -0.23750
H515        H  0.39879619  0.25454702  0.70391479     0.05420
H516        H  0.36035647  0.23658294  0.73126881     0.08650
H517        H  0.37801787  0.27748976  0.70749682     0.08650
H518        H  0.27587214  0.14491247  0.58611461     0.08630
H519        H  0.29309039  0.18571172  0.56150180     0.08630
H520        H  0.25550387  0.16805118  0.58985391     0.05410
C521        C  0.35138738  0.03734581  0.38726542    -0.20400
C522        C  0.35132414  0.06703475  0.37998964    -0.06960
C523        C  0.33754188  0.06953601  0.34756362     0.13900
C524        C  0.32493233  0.04243383  0.32258086    -0.20450
C525        C  0.32646658  0.01341271  0.32933817    -0.06970
C526        C  0.33906944  0.01045714  0.36237904     0.13890
C527        C  0.33911161  0.97873901  0.37169137    -0.23800
H528        H  0.36175206  0.03553317  0.41237328     0.15180
H529        H  0.31532595  0.04461422  0.29715430     0.15210
C530        C  0.33768241  0.10142581  0.33875894    -0.23750
H531        H  0.34840346  0.98007034  0.39918487     0.05420
H532        H  0.35677112  0.97653096  0.35357531     0.08650
H533        H  0.31189732  0.95491648  0.36950706     0.08650
H534        H  0.36517725  0.12516859  0.33930361     0.08630
H535        H  0.32156862  0.10436377  0.35843026     0.08630
H536        H  0.32657377  0.09947511  0.31204187     0.05410
C537        C  0.62678109  0.83027972  0.64609275    -0.20400
C538        C  0.60441119  0.82872484  0.61961888    -0.06960
C539        C  0.59861108  0.85564241  0.61728884     0.13900
C540        C  0.61295687  0.88181815  0.64313534    -0.20450
C541        C  0.63335973  0.88218981  0.67102742    -0.06970
C542        C  0.64134341  0.85675733  0.67199509     0.13890
C543        C  0.66352287  0.85633567  0.70114915    -0.23800
H544        H  0.63167609  0.80991621  0.64733447     0.15180
H545        H  0.60764416  0.90189815  0.64195072     0.15210
C546        C  0.57805398  0.85751519  0.58721250    -0.23750
H547        H  0.66610485  0.83393482  0.69844619     0.05420
H548        H  0.65120614  0.85402471  0.72721653     0.08650
H549        H  0.69045910  0.88086605  0.70033692     0.08650
H550        H  0.54994254  0.83528873  0.58856367     0.08630
H551        H  0.58950904  0.85700851  0.56152904     0.08630
H552        H  0.57885971  0.88199425  0.58810064     0.05410
C553        C  0.59568657  0.67863044  0.35923593    -0.20400
C554        C  0.60986420  0.68221241  0.39310460    -0.06960
C555        C  0.64001946  0.68121961  0.39702628     0.13900
C556        C  0.65453032  0.67586562  0.36696023    -0.20450
C557        C  0.63911094  0.67055853  0.33347264    -0.06970
C558        C  0.60971774  0.67251060  0.32958962     0.13890
C559        C  0.59279873  0.66766850  0.29418855    -0.23800
H560        H  0.57289494  0.67981977  0.35603180     0.15180
H561        H  0.67702419  0.67427882  0.36986853     0.15210
C562        C  0.65572176  0.68353945  0.43281426    -0.23750
H563        H  0.57077816  0.67118340  0.29540544     0.05420
H564        H  0.58191466  0.64067305  0.28478489     0.08650
H565        H  0.61284033  0.68722253  0.27524328     0.08650
H566        H  0.63505654  0.66327204  0.45080636     0.08630
H567        H  0.66732182  0.70993397  0.44423866     0.08630
H568        H  0.67717152  0.67921434  0.43108958     0.05410
C569        C  0.26774237  0.81303785  0.34819628    -0.20400
C570        C  0.26155636  0.81921411  0.38294901    -0.06960
C571        C  0.26194940  0.84964422  0.38987625     0.13900
C572        C  0.26779207  0.87239632  0.36188693    -0.20450
C573        C  0.27474979  0.86650157  0.32762576    -0.06970
C574        C  0.27454899  0.83644916  0.32051276     0.13890
C575        C  0.28107444  0.82892068  0.28362980    -0.23800
H576        H  0.26737974  0.78982793  0.34266097     0.15180
H577        H  0.26789145  0.89550240  0.36695818     0.15210
C578        C  0.25852833  0.85984811  0.42673749    -0.23750
H579        H  0.27920463  0.80389618  0.28247013     0.05420
H580        H  0.30787984  0.85029528  0.27460795     0.08650
H581        H  0.26117708  0.82698929  0.26517906     0.08650
H582        H  0.27719065  0.85918018  0.44490421     0.08630
H583        H  0.23108575  0.84212018  0.43638231     0.08630
H584        H  0.26476401  0.88683843  0.42742874     0.05410
C585        C  0.09894919  0.68275888  0.61817940    -0.20400
C586        C  0.12159579  0.67157782  0.62326231    -0.06960
C587        C  0.11988473  0.65533203  0.65591065     0.13900
C588        C  0.09477618  0.64943382  0.68133604    -0.20450
C589        C  0.07205510  0.66022665  0.67588444    -0.06970
C590        C  0.07451000  0.67761336  0.64410518     0.13890
C591        C  0.05056942  0.68959211  0.63674905    -0.23800
H592        H  0.09986938  0.69518204  0.59346005     0.15180
H593        H  0.09284379  0.63619375  0.70584066     0.15210
C594        C  0.14472916  0.64491643  0.66522386    -0.23750
H595        H  0.05508054  0.70134494  0.60993411     0.05420
H596        H  0.05556429  0.70982553  0.65626031     0.08650
H597        H  0.02254453  0.66695132  0.63845311     0.08650
H598        H  0.17242061  0.66682148  0.65955269     0.08630
H599        H  0.13743237  0.62103855  0.65048208     0.08630
H600        H  0.14323250  0.63842061  0.69379746     0.05410
C601        C  0.93332031  0.60858206  0.86461036    -0.20400
C602        C  0.92195331  0.60455439  0.82940680    -0.06960
C603        C  0.88566720  0.58720301  0.82197568     0.13900
C604        C  0.86126268  0.57297174  0.84997272    -0.20450
C605        C  0.87250220  0.57615986  0.88516084    -0.06970
C606        C  0.90894927  0.59460160  0.89267703     0.13890
C607        C  0.92200261  0.59800336  0.93004259    -0.23800
H608        H  0.96125919  0.62166084  0.87002937     0.15180
H609        H  0.83324935  0.55878531  0.84438481     0.15210
C610        C  0.87280786  0.58341112  0.78449984    -0.23750
H611        H  0.95121465  0.61238552  0.93108568     0.05420
H612        H  0.91042264  0.57155526  0.94169567     0.08650
H613        H  0.91422234  0.61257888  0.94629035     0.08650
H614        H  0.88074677  0.56879447  0.76852511     0.08630
H615        H  0.88453723  0.60982386  0.77278056     0.08630
H616        H  0.84361518  0.56909889  0.78325970     0.05410
C617        C  0.74712671  0.59553153  0.13767544    -0.20400
C618        C  0.71969443  0.56796722  0.11765083    -0.06960
C619        C  0.68464017  0.55778554  0.12344301     0.13900
C620        C  0.67780169  0.57397018  0.15037585    -0.20450
C621        C  0.70491522  0.60047824  0.17157759    -0.06970
C622        C  0.74026681  0.61197962  0.16457113     0.13890
C623        C  0.77077402  0.64065108  0.18583749    -0.23800
H624        H  0.77403825  0.60370560  0.13275828     0.15180
H625        H  0.65081817  0.56575805  0.15488868     0.15210
C626        C  0.65431773  0.53097521  0.10054827    -0.23750
H627        H  0.79625992  0.64512711  0.17759675     0.05420
H628        H  0.76677083  0.63345532  0.21434453     0.08650
H629        H  0.77300289  0.66565906  0.18195377     0.08650
H630        H  0.64832619  0.50451013  0.10548405     0.08630
H631        H  0.66086612  0.53806785  0.07218591     0.08630
H632        H  0.62978116  0.52953418  0.10628445     0.05410
C633        C  0.82087297  0.19456638  0.15085144    -0.20400
C634        C  0.82855542  0.21796846  0.12299150    -0.06960
C635        C  0.86240127  0.24956920  0.12053446     0.13900
C636        C  0.88759930  0.25736508  0.14655175    -0.20450
C637        C  0.87996367  0.23414737  0.17463464    -0.06970
C638        C  0.84610665  0.20237022  0.17696115     0.13890
C639        C  0.83591593  0.17739781  0.20759522    -0.23800
H640        H  0.79479011  0.17036015  0.15246750     0.15180
H641        H  0.91356406  0.28169107  0.14484621     0.15210
C642        C  0.87245555  0.27457548  0.08996105    -0.23750
H643        H  0.80779334  0.15493165  0.20611249     0.05420
H644        H  0.83979721  0.19130419  0.23292654     0.08650
H645        H  0.85225045  0.16661420  0.20750188     0.08650
H646        H  0.85609930  0.28531581  0.09015164     0.08630
H647        H  0.86847133  0.26068116  0.06461185     0.08630
H648        H  0.90057943  0.29705622  0.09135763     0.05410
C649        C  0.71093333  0.04605458  0.84256586    -0.20400
C650        C  0.67685154  0.02534878  0.82784750    -0.06960
C651        C  0.65047674  0.02996131  0.84045351     0.13900
C652        C  0.65881737  0.05415204  0.86752133    -0.20450
C653        C  0.69256219  0.07419468  0.88254171    -0.06970
C654        C  0.71919718  0.07047037  0.86953277     0.13890
C655        C  0.75672900  0.09303166  0.88264586    -0.23800
H656        H  0.73144900  0.04324875  0.83291546     0.15180
H657        H  0.63853729  0.05725389  0.87735102     0.15210
C658        C  0.61336813  0.00998593  0.82589538    -0.23750
H659        H  0.77462061  0.08910646  0.86680805     0.05420
H660        H  0.75829574  0.08622099  0.91037981     0.08650
H661        H  0.76662079  0.12115405  0.88069691     0.08650
H662        H  0.60008069  0.98145505  0.83060871     0.08630
H663        H  0.61401606  0.01545621  0.79715453     0.08630
H664        H  0.59697146  0.01769100  0.83880598     0.05410
C665        C  0.85196676  0.21250227  0.38244736    -0.20400
C666        C  0.82669684  0.21979313  0.37484426    -0.06960
C667        C  0.82742113  0.23405960  0.34131795     0.13900
C668        C  0.85437889  0.24221065  0.31729491    -0.20450
C669        C  0.87984409  0.23546271  0.32534429    -0.06970
C670        C  0.87825295  0.21978759  0.35800062     0.13890
C671        C  0.90491420  0.21187615  0.36772429    -0.23800
H672        H  0.85152096  0.20144808  0.40794280     0.15180
H673        H  0.85540872  0.25360820  0.29178973     0.15210
C674        C  0.79930247  0.23939198  0.32974906    -0.23750
H675        H  0.90052594  0.20082625  0.39487075     0.05420
H676        H  0.93175207  0.23636968  0.36665535     0.08650
H677        H  0.90316147  0.19246712  0.34903427     0.08650
H678        H  0.80187028  0.26141828  0.34441176     0.08630
H679        H  0.77272376  0.21497527  0.33405850     0.08630
H680        H  0.80166215  0.24611198  0.30116323     0.05410
C681        C  0.69738605  0.02591880  0.64162264    -0.20400
C682        C  0.68415127  0.02844655  0.67389634    -0.06960
C683        C  0.67785337  0.05472393  0.67862874     0.13900
C684        C  0.68434074  0.07753456  0.65051111    -0.20450
C685        C  0.69623119  0.07437828  0.61729224    -0.06970
C686        C  0.70319203  0.04815025  0.61305669     0.13890
C687        C  0.71530250  0.04185895  0.57863599    -0.23800
H688        H  0.70200960  0.00549206  0.63839481     0.15180
H689        H  0.67970032  0.09780417  0.65461148     0.15210
C690        C  0.66468506  0.05903446  0.71348085    -0.23750
H691        H  0.71440386  0.01731855  0.57939079     0.05420
H692        H  0.74319610  0.06341414  0.57357668     0.08650
H693        H  0.69793142  0.03924041  0.55661320     0.08650
H694        H  0.68317547  0.06317977  0.73500788     0.08630
H695        H  0.63808140  0.03531670  0.71944962     0.08630
H696        H  0.66258483  0.08184209  0.71308625     0.05410
C697        C  0.04962960  0.31939264  0.11218854    -0.20400
C698        C  0.08068250  0.32097687  0.11760438    -0.06960
C699        C  0.08531852  0.30768497  0.14923873     0.13900
C700        C  0.05895158  0.29391007  0.17540868    -0.20450
C701        C  0.02851931  0.29369289  0.17053002    -0.06970
C702        C  0.02333542  0.30570878  0.13823316     0.13890
C703        C  0.98985170  0.30360209  0.13096838    -0.23800
H704        H  0.04620116  0.32935823  0.08762982     0.15180
H705        H  0.06267649  0.28454869  0.20021872     0.15210
C706        C  0.11859035  0.30932321  0.15586081    -0.23750
H707        H  0.98958455  0.31272393  0.10380202     0.05420
H708        H  0.98713826  0.32025261  0.14990462     0.08650
H709        H  0.96676421  0.27599585  0.13361911     0.08650
H710        H  0.14176205  0.33701760  0.15490257     0.08630
H711        H  0.12159401  0.29406108  0.13530390     0.08630
H712        H  0.11818938  0.29831375  0.18218366     0.05410
C713        C  0.24776626  0.31292302  0.88724805    -0.20400
C714        C  0.21886518  0.31509248  0.88209608    -0.06960
C715        C  0.19734232  0.29968588  0.85189964     0.13900
C716        C  0.20616632  0.28350540  0.82665168    -0.20450
C717        C  0.23604890  0.28265069  0.83114137    -0.06970
C718        C  0.25634279  0.29640406  0.86246605     0.13890
C719        C  0.28689110  0.29372571  0.87096504    -0.23800
H720        H  0.26379164  0.32422167  0.91086087     0.15180
H721        H  0.19067262  0.27291865  0.80265034     0.15210
C722        C  0.16607790  0.30165604  0.84567591    -0.23750
H723        H  0.28230070  0.28069853  0.89707751     0.05420
H724        H  0.29043126  0.27813364  0.85141512     0.08650
H725        H  0.31165514  0.32039920  0.87230922     0.08650
H726        H  0.17494018  0.32952041  0.84443599     0.08630
H727        H  0.14681808  0.28830658  0.86762546     0.08630
H728        H  0.15243735  0.28882974  0.82045849     0.05410
C729        C  0.33934192  0.21710627  0.81918950    -0.20400
C730        C  0.30832907  0.21467959  0.82760476    -0.06960
C731        C  0.29392134  0.20404074  0.86199930     0.13900
C732        C  0.31217567  0.19795504  0.88756322    -0.20450
C733        C  0.34446126  0.20245510  0.87967782    -0.06970
C734        C  0.35738702  0.21069239  0.84449331     0.13890
C735        C  0.38933877  0.21165486  0.83273503    -0.23800
H736        H  0.34989217  0.22471144  0.79261321     0.15180
H737        H  0.30173642  0.19095124  0.91426628     0.15210
C738        C  0.26045103  0.20035698  0.87322684    -0.23750
H739        H  0.39212070  0.21332273  0.80344961     0.05420
H740        H  0.38692840  0.18739055  0.84137083     0.08650
H741        H  0.41376330  0.23501596  0.84350600     0.08650
H742        H  0.24852254  0.20701404  0.85198569     0.08630
H743        H  0.24071526  0.17289973  0.88169033     0.08630
H744        H  0.26612416  0.21801053  0.89592483     0.05410
C745        C  0.36879670  0.04671275  0.12069271    -0.20400
C746        C  0.35407393  0.06626473  0.11873996    -0.06960
C747        C  0.32731035  0.05915258  0.14299512     0.13900
C748        C  0.31679239  0.03329359  0.16921989    -0.20450
C749        C  0.33262993  0.01470353  0.17195747    -0.06970
C750        C  0.35847913  0.02106848  0.14675408     0.13890
C751        C  0.37471460  0.00034631  0.14626707    -0.23800
H752        H  0.38886816  0.05176109  0.10168703     0.15180
H753        H  0.29678321  0.02824647  0.18829759     0.15210
C754        C  0.31092850  0.07968374  0.14245656    -0.23750
H755        H  0.39225554  0.00705679  0.12300701     0.05420
H756        H  0.35350614  0.97194103  0.14487380     0.08650
H757        H  0.39101825  0.00597874  0.17027480     0.08650
H758        H  0.29617512  0.07469802  0.11744056     0.08630
H759        H  0.33180838  0.10812794  0.14488453     0.08630
H760        H  0.29201377  0.07205745  0.16463879     0.05410
C761        C  0.02024668  0.28582994  0.36228745    -0.20400
C762        C  0.03162510  0.29584896  0.32729551    -0.06960
C763        C  0.06796993  0.31857980  0.31985429     0.13900
C764        C  0.09219810  0.33182472  0.34794246    -0.20450
C765        C  0.08079413  0.32259266  0.38317066    -0.06970
C766        C  0.04436118  0.29910387  0.39045736     0.13890
C767        C  0.03054957  0.28956456  0.42783143    -0.23800
H768        H  0.99228384  0.26851237  0.36768813     0.15180
H769        H  0.12016019  0.34979700  0.34245701     0.15210
C770        C  0.08106292  0.32869166  0.28231894    -0.23750
H771        H  0.00123104  0.27267963  0.42856849     0.05420
H772        H  0.03949251  0.31371267  0.44312482     0.08650
H773        H  0.04015273  0.27487526  0.44077776     0.08650
H774        H  0.07025088  0.34259244  0.26998696     0.08630
H775        H  0.07240004  0.30475758  0.26676154     0.08630
H776        H  0.11033127  0.34623926  0.28110861     0.05410
C777        C  0.25541023  0.32412578  0.61871848    -0.20400
C778        C  0.22165276  0.31757786  0.61855922    -0.06960
C779        C  0.19671748  0.29498276  0.64440606     0.13900
C780        C  0.20674392  0.28049481  0.67058291    -0.20450
C781        C  0.24108945  0.28832613  0.67157466    -0.06970
C782        C  0.26540129  0.30958835  0.64461924     0.13890
C783        C  0.30162094  0.31638052  0.64229799    -0.23800
H784        H  0.27421268  0.34098128  0.59845652     0.15180
H785        H  0.18806305  0.26390576  0.69103669     0.15210
C786        C  0.16021601  0.28744365  0.64557466    -0.23750
H787        H  0.31578017  0.33109360  0.61787889     0.05420
H788        H  0.29925279  0.29108407  0.64187102     0.08650
H789        H  0.31802775  0.33230480  0.66513245     0.08650
H790        H  0.14544314  0.27330043  0.62131373     0.08630
H791        H  0.16201683  0.31238254  0.64763259     0.08630
H792        H  0.14488621  0.27077037  0.66865622     0.05410
loop_ 
_geom_bond_atom_site_label_1 
_geom_bond_atom_site_label_2 
_geom_bond_distance 
_geom_bond_site_symmetry_2 
_ccdc_geom_bond_type 
N1            N2   1.322       .  A
N1            C5   1.346       .  A
N1           Cu9   2.073       .  S
N2            C3   1.343       .  A
N2           Cu8   2.069       .  S
C3            C4   1.381       .  A
C3            H6   1.082       .  S
C4            C5   1.384       .  A
C4          C765   1.477       .  S
C5            H7   1.081       .  S
Cu8          N11   2.068       .  S
Cu9          N19   2.073       .  S
Cu10         N12   2.077       .  S
Cu10         N18   2.078       .  S
N11          N12   1.321       .  A
N11          C15   1.344       .  A
N12          C13   1.347       .  A
C13          C14   1.385       .  A
C13          H16   1.082       .  S
C14          C15   1.382       .  A
C14         C194   1.475       .  S
C15          H17   1.082       .  S
N18          N19   1.323       .  A
N18          C22   1.343       .  A
N19          C20   1.346       .  A
C20          C21   1.383       .  A
C20          H23   1.081       .  S
C21          C22   1.383       .  A
C21         C778   1.478       .  S
C22          H24   1.082       .  S
N25          N26   1.321       .  A
N25          C29   1.349       .  A
N25         Cu33   2.079       .  S
N26          C27   1.340       .  A
N26         Cu32   2.064       .  S
C27          C28   1.382       .  A
C27          H30   1.082       .  S
C28          C29   1.388       .  A
C28         C746   1.482       .  S
C29          H31   1.081       .  S
Cu32         N35   2.063       .  S
Cu33         N43   2.080   1_554  S
Cu34         N36   2.075       .  S
Cu34         N42   2.077       .  S
N35          N36   1.320   1_554  A
N35          C39   1.343       .  A
N36          C37   1.347       .  A
C37          C38   1.386       .  A
C37          H40   1.082       .  S
C38          C39   1.382   1_556  A
C38         C123   1.474       .  S
C39          H41   1.082       .  S
N42          N43   1.323       .  A
N42          C46   1.342       .  A
N43          C44   1.346       .  A
C44          C45   1.386       .  A
C44          H47   1.082       .  S
C45          C46   1.384       .  A
C45         C733   1.484       .  S
C46          H48   1.079       .  S
N49          N50   1.322       .  A
N49          C53   1.346       .  A
N49         Cu57   2.070       .  S
N50          C51   1.343       .  A
N50         Cu56   2.069       .  S
C51          C52   1.380       .  A
C51          H54   1.082       .  S
C52          C53   1.381       .  A
C52         C698   1.470       .  S
C53          H55   1.082       .  S
Cu56         N59   2.069       .  S
Cu57         N67   2.071   1_554  S
Cu58         N60   2.078       .  S
Cu58         N66   2.079       .  S
N59          N60   1.322   1_554  A
N59          C63   1.344       .  A
N60          C61   1.346       .  A
C61          C62   1.385   1_556  A
C61          H64   1.082       .  S
C62          C63   1.382       .  A
C62         C308   1.474       .  S
C63          H65   1.082       .  S
N66          N67   1.324       .  A
N66          C70   1.344       .  A
N67          C68   1.346       .  A
C68          C69   1.380       .  A
C68          H71   1.082       .  S
C69          C70   1.381       .  A
C69         C714   1.471       .  S
C70          H72   1.082       .  S
N73          N74   1.318       .  A
N73          C77   1.341       .  A
N73         Cu81   2.057       .  S
N74          C75   1.344       .  A
N74         Cu80   2.068       .  S
C75          C76   1.388       .  A
C75          H78   1.079       .  S
C76          C77   1.385       .  A
C76         C666   1.484       .  S
C77          H79   1.082       .  S
Cu80         N83   2.069       .  S
Cu81         N91   2.058       .  S
Cu82         N84   2.086       .  S
Cu82         N90   2.085       .  S
N83          N84   1.324       .  A
N83          C87   1.343       .  A
N84          C85   1.347       .  A
C85          C86   1.385       .  A
C85          H88   1.082       .  S
C86          C87   1.380       .  A
C86         C249   1.475       .  S
C87          H89   1.082       .  S
N90          N91   1.319       .  A
N90          C94   1.345       .  A
N91          C92   1.341       .  A
C92          C93   1.388       .  A
C92          H95   1.076       .  S
C93          C94   1.395       .  A
C93         C685   1.497       .  S
C94          H96   1.081       .  S
N97          N98   1.322       .  A
N97         C101   1.344       .  A
N97        Cu105   2.066       .  S
N98          C99   1.344       .  A
N98        Cu104   2.068       .  S
C99         C100   1.382       .  A
C99         H102   1.082       .  S
C100        C101   1.380       .  A
C100        C634   1.472       .  S
C101        H103   1.082       .  S
Cu104       N107   2.068       .  S
Cu105       N115   2.067   1_554  S
Cu106       N108   2.075       .  S
Cu106       N114   2.076       .  S
N107        N108   1.322   1_554  A
N107        C111   1.343       .  A
N108        C109   1.346       .  A
C109        C110   1.383       .  A
C109        H112   1.082       .  S
C110        C111   1.381   1_556  A
C110        C121   1.471       .  S
C111        H113   1.082       .  S
N114        N115   1.321       .  A
N114        C118   1.344       .  A
N115        C116   1.344       .  A
C116        C117   1.385       .  A
C116        H119   1.079       .  S
C117        C118   1.386       .  A
C117        C653   1.484       .  S
C118        H120   1.082       .  S
C121        C122   1.402       .  A
C121        C126   1.402       .  A
C122        C123   1.404       .  A
C122        H127   1.084       .  S
C123        C124   1.404       .  A
C124        C125   1.404       .  A
C124        H128   1.084       .  S
C125        C126   1.402       .  A
C125        C143   1.473       .  S
C126        H129   1.084       .  S
N130        N131   1.324       .  A
N130        C134   1.348       .  A
N130       Cu138   2.083   1_556  S
N131        C132   1.344       .  A
N131       Cu137   2.074       .  S
C132        C133   1.380       .  A
C132        H135   1.082       .  S
C133        C134   1.384       .  A
C133        C605   1.476       .  S
C134        H136   1.082       .  S
Cu137       N140   2.073       .  S
Cu138       N148   2.083       .  S
Cu139       N141   2.070       .  S
Cu139       N147   2.071       .  S
N140        N141   1.321   1_556  A
N140        C144   1.345       .  A
N141        C142   1.346       .  A
C142        C143   1.383   1_554  A
C142        H145   1.082       .  S
C143        C144   1.383       .  A
C144        H146   1.082       .  S
N147        N148   1.322       .  A
N147        C151   1.342       .  A
N148        C149   1.348       .  A
C149        C150   1.386       .  A
C149        H152   1.082       .  S
C150        C151   1.383       .  A
C150        C618   1.483       .  S
C151        H153   1.080       .  S
O154       Cu162   2.019       .  S
O154        C164   1.278   1_655  A
O155       Cu162   2.009       .  S
O155        C165   1.277       .  A
O156       Cu162   2.012       .  S
O156        C166   1.278       .  A
O157       Cu162   2.010       .  S
O157        C167   1.277   1_655  A
O158       Cu163   2.005       .  S
O158        C167   1.277   1_655  A
O159       Cu163   1.995       .  S
O159        C166   1.276       .  A
O160       Cu163   1.999       .  S
O160        C165   1.277       .  A
O161       Cu163   1.991       .  S
O161        C164   1.275   1_655  A
Cu162      Cu163   2.377       .  S
C164        C701   1.470       .  S
C165        C669   1.472       .  S
C166        C637   1.475       .  S
C167        C762   1.469       .  S
N168        N169   1.321       .  A
N168        C172   1.342       .  A
N168       Cu176   2.065       .  S
N169        C170   1.347       .  A
N169       Cu175   2.083       .  S
C170        C171   1.389       .  A
C170        H173   1.082       .  S
C171        C172   1.384       .  A
C171        C570   1.487       .  S
C172        H174   1.078       .  S
Cu175       N178   2.084       .  S
Cu176       N186   2.065       .  S
Cu177       N179   2.074       .  S
Cu177       N185   2.073       .  S
N178        N179   1.324       .  A
N178        C182   1.347       .  A
N179        C180   1.344       .  A
C180        C181   1.382       .  A
C180        H183   1.082       .  S
C181        C182   1.385       .  A
C181        C192   1.476       .  S
C182        H184   1.082       .  S
N185        N186   1.318       .  A
N185        C189   1.344       .  A
N186        C187   1.343       .  A
C187        C188   1.389       .  A
C187        H190   1.082       .  S
C188        C189   1.392       .  A
C188        C586   1.494       .  S
C189        H191   1.077       .  S
C192        C193   1.403       .  A
C192        C197   1.404       .  A
C193        C194   1.402       .  A
C193        H198   1.084       .  S
C194        C195   1.403       .  A
C195        C196   1.405       .  A
C195        H199   1.084       .  S
C196        C197   1.405       .  A
C196        C214   1.475       .  S
C197        H200   1.084       .  S
N201        N202   1.322       .  A
N201        C205   1.347       .  A
N201       Cu209   2.071       .  S
N202        C203   1.341       .  A
N202       Cu208   2.070       .  S
C203        C204   1.382       .  A
C203        H206   1.081       .  S
C204        C205   1.383       .  A
C204        C538   1.477       .  S
C205        H207   1.082       .  S
Cu208       N211   2.069       .  S
Cu209       N219   2.071       .  S
Cu210       N212   2.080       .  S
Cu210       N218   2.081       .  S
N211        N212   1.321       .  A
N211        C215   1.344       .  A
N212        C213   1.347       .  A
C213        C214   1.386       .  A
C213        H216   1.082       .  S
C214        C215   1.382       .  A
C215        H217   1.082       .  S
N218        N219   1.323       .  A
N218        C222   1.343       .  A
N219        C220   1.346       .  A
C220        C221   1.384       .  A
C220        H223   1.080       .  S
C221        C222   1.386       .  A
C221        C554   1.483       .  S
C222        H224   1.082       .  S
N225        N226   1.322       .  A
N225        C229   1.348       .  A
N225       Cu233   2.076       .  S
N226        C227   1.342       .  A
N226       Cu232   2.068       .  S
C227        C228   1.380       .  A
C227        H230   1.082       .  S
C228        C229   1.384       .  A
C228        C522   1.473       .  S
C229        H231   1.082       .  S
Cu232       N235   2.068       .  S
Cu233       N243   2.076       .  S
Cu234       N236   2.076       .  S
Cu234       N242   2.077       .  S
N235        N236   1.321       .  A
N235        C239   1.343       .  A
N236        C237   1.347       .  A
C237        C238   1.385       .  A
C237        H240   1.082       .  S
C238        C239   1.382       .  A
C238        C253   1.474       .  S
C239        H241   1.082       .  S
N242        N243   1.320       .  A
N242        C246   1.341       .  A
N243        C244   1.345       .  A
C244        C245   1.393       .  A
C244        H247   1.076       .  S
C245        C246   1.392       .  A
C245        C506   1.501       .  S
C246        H248   1.081       .  S
C249        C250   1.404       .  A
C249        C254   1.402       .  A
C250        C251   1.404       .  A
C250        H255   1.084       .  S
C251        C252   1.404       .  A
C251        C271   1.477       .  S
C252        C253   1.404       .  A
C252        H256   1.084       .  S
C253        C254   1.404       .  A
C254        H257   1.084       .  S
N258        N259   1.322       .  A
N258        C262   1.349       .  A
N258       Cu266   2.079       .  S
N259        C260   1.341       .  A
N259       Cu265   2.069       .  S
C260        C261   1.382       .  A
C260        H263   1.081       .  S
C261        C262   1.386       .  A
C261        C477   1.480       .  S
C262        H264   1.082       .  S
Cu265       N268   2.068       .  S
Cu266       N276   2.080       .  S
Cu267       N269   2.077       .  S
Cu267       N275   2.079       .  S
N268        N269   1.321       .  A
N268        C272   1.345       .  A
N269        C270   1.347       .  A
C270        C271   1.386       .  A
C270        H273   1.082       .  S
C271        C272   1.383       .  A
C272        H274   1.082       .  S
N275        N276   1.323       .  A
N275        C279   1.343       .  A
N276        C277   1.346       .  A
C277        C278   1.387       .  A
C277        H280   1.082       .  S
C278        C279   1.386       .  A
C278        C493   1.486       .  S
C279        H281   1.079       .  S
N282        N283   1.321       .  A
N282        C286   1.343       .  A
N282       Cu290   2.062   1_556  S
N283        C284   1.346       .  A
N283       Cu289   2.078       .  S
C284        C285   1.385       .  A
C284        H287   1.082       .  S
C285        C286   1.381       .  A
C285        C461   1.476       .  S
C286        H288   1.081       .  S
Cu289       N292   2.079       .  S
Cu290       N300   2.062       .  S
Cu291       N293   2.081       .  S
Cu291       N299   2.081       .  S
N292        N293   1.324   1_556  A
N292        C296   1.345       .  A
N293        C294   1.347       .  A
C294        C295   1.383       .  A
C294        H297   1.082       .  S
C295        C296   1.382   1_554  A
C295        C306   1.475       .  S
C296        H298   1.082       .  S
N299        N300   1.321       .  A
N299        C303   1.346       .  A
N300        C301   1.343       .  A
C301        C302   1.383       .  A
C301        H304   1.080       .  S
C302        C303   1.387       .  A
C302        C442   1.481       .  S
C303        H305   1.082       .  S
C306        C307   1.403       .  A
C306        C311   1.403       .  A
C307        C308   1.404       .  A
C307        H312   1.084       .  S
C308        C309   1.403       .  A
C309        C310   1.403       .  A
C309        H313   1.084       .  S
C310        C311   1.405       .  A
C310        C328   1.473       .  S
C311        H314   1.084       .  S
N315        N316   1.320       .  A
N315        C319   1.348       .  A
N315       Cu323   2.077       .  S
N316        C317   1.338       .  A
N316       Cu322   2.056       .  S
C317        C318   1.381       .  A
C317        H320   1.079       .  S
C318        C319   1.388       .  A
C318        C410   1.482       .  S
C319        H321   1.082       .  S
Cu322       N325   2.056       .  S
Cu323       N333   2.079   1_556  S
Cu324       N326   2.080       .  S
Cu324       N332   2.082       .  S
N325        N326   1.319   1_556  A
N325        C329   1.342       .  A
N326        C327   1.348       .  A
C327        C328   1.387       .  A
C327        H330   1.082       .  S
C328        C329   1.380   1_554  A
C329        H331   1.082       .  S
N332        N333   1.323       .  A
N332        C336   1.341       .  A
N333        C334   1.347       .  A
C334        C335   1.389       .  A
C334        H337   1.078       .  S
C335        C336   1.389       .  A
C335        C429   1.492       .  S
C336        H338   1.082       .  S
O339       Cu347   1.988       .  S
O339        C349   1.276       .  A
O340       Cu347   1.984       .  S
O340        C350   1.273       .  A
O341       Cu347   1.988       .  S
O341        C351   1.274   1_565  A
O342       Cu347   1.989       .  S
O342        C352   1.277       .  A
O343       Cu348   2.020       .  S
O343        C352   1.278       .  A
O344       Cu348   2.020       .  S
O344        C351   1.279   1_565  A
O345       Cu348   2.027       .  S
O345        C350   1.281       .  A
O346       Cu348   2.025       .  S
O346        C349   1.279       .  A
Cu347      Cu348   2.368       .  S
C349        C541   1.478       .  S
C350        C650   1.495   1_565  S
C351        C682   1.471       .  S
C352        C413   1.487       .  S
O353       Cu361   1.994       .  S
O353        C363   1.276       .  A
O354       Cu361   1.995       .  S
O354        C364   1.275       .  A
O355       Cu361   1.996       .  S
O355        C365   1.278       .  A
O356       Cu361   2.005       .  S
O356        C366   1.277       .  A
O357       Cu362   2.028       .  S
O357        C366   1.279       .  A
O358       Cu362   2.022       .  S
O358        C365   1.279       .  A
O359       Cu362   2.033       .  S
O359        C364   1.281       .  A
O360       Cu362   2.024       .  S
O360        C363   1.279       .  A
Cu361      Cu362   2.371       .  S
C363        C490   1.477       .  S
C364        C426   1.487       .  S
C365        C621   1.487       .  S
C366        C557   1.478       .  S
O367       Cu375   2.000       .  S
O367        C377   1.277       .  A
O368       Cu375   1.998       .  S
O368        C378   1.276       .  A
O369       Cu375   1.993       .  S
O369        C379   1.274       .  A
O370       Cu375   1.998       .  S
O370        C380   1.276       .  A
O371       Cu376   2.023       .  S
O371        C380   1.279       .  A
O372       Cu376   2.024       .  S
O372        C379   1.281       .  A
O373       Cu376   2.019       .  S
O373        C378   1.278       .  A
O374       Cu376   2.018       .  S
O374        C377   1.278       .  A
Cu375      Cu376   2.371       .  S
C377        C749   1.484   1_565  S
C378        C573   1.470       .  S
C379        C445   1.493       .  S
C380        C525   1.474   1_565  S
O381       Cu389   2.002       .  S
O381        C391   1.276       .  A
O382       Cu389   1.998   1_455  S
O382        C392   1.277       .  A
O383       Cu389   1.993   1_455  S
O383        C393   1.275       .  A
O384       Cu389   1.997       .  S
O384        C394   1.278       .  A
O385       Cu390   2.022   1_655  S
O385        C394   1.279       .  A
O386       Cu390   2.019       .  S
O386        C393   1.278       .  A
O387       Cu390   2.018       .  S
O387        C392   1.279       .  A
O388       Cu390   2.021   1_655  S
O388        C391   1.278       .  A
Cu389      Cu390   2.375   1_655  S
C391        C602   1.471       .  S
C392        C589   1.478       .  S
C393        C458   1.467       .  S
C394        C474   1.486       .  S
O395       Cu403   2.020       .  S
O395        C405   1.279       .  A
O396       Cu403   2.023       .  S
O396        C406   1.279       .  A
O397       Cu403   2.023       .  S
O397        C407   1.279       .  A
O398       Cu403   2.026       .  S
O398        C408   1.280       .  A
O399       Cu404   1.988       .  S
O399        C408   1.274       .  A
O400       Cu404   1.991       .  S
O400        C407   1.276       .  A
O401       Cu404   1.988       .  S
O401        C406   1.275       .  A
O402       Cu404   1.992       .  S
O402        C405   1.275       .  A
Cu403      Cu404   2.374       .  S
C405        C781   1.478       .  S
C406        C730   1.471       .  S
C407        C717   1.472       .  S
C408        C509   1.482       .  S
C409        C410   1.405       .  A
C409        C414   1.409       .  A
C409        H416   1.084       .  S
C410        C411   1.415       .  A
C411        C412   1.397       .  A
C411        C418   1.510       .  S
C412        C413   1.404       .  A
C412        H417   1.084       .  S
C413        C414   1.418       .  A
C414        C415   1.507       .  S
C415        H419   1.111       .  S
C415        H420   1.110       .  S
C415        H421   1.110       .  S
C418        H422   1.110       .  S
C418        H423   1.106       .  S
C418        H424   1.111       .  S
C425        C426   1.405       .  A
C425        C430   1.410       .  A
C425        H432   1.084       .  S
C426        C427   1.415       .  A
C427        C428   1.398       .  A
C427        C434   1.504       .  S
C428        C429   1.403       .  A
C428        H433   1.083       .  S
C429        C430   1.420       .  A
C430        C431   1.506       .  S
C431        H435   1.111       .  S
C431        H436   1.107       .  S
C431        H437   1.110       .  S
C434        H438   1.099       .  S
C434        H439   1.109       .  S
C434        H440   1.111       .  S
C441        C442   1.400       .  A
C441        C446   1.404       .  A
C441        H448   1.084       .  S
C442        C443   1.414       .  A
C443        C444   1.405       .  A
C443        C450   1.508       .  S
C444        C445   1.407       .  A
C444        H449   1.084       .  S
C445        C446   1.423       .  A
C446        C447   1.509       .  S
C447        H451   1.111       .  S
C447        H452   1.110       .  S
C447        H453   1.109       .  S
C450        H454   1.110       .  S
C450        H455   1.107       .  S
C450        H456   1.111       .  S
C457        C458   1.399       .  A
C457        C462   1.404       .  A
C457        H464   1.084       .  S
C458        C459   1.410       .  A
C459        C460   1.403       .  A
C459        C466   1.506       .  S
C460        C461   1.403       .  A
C460        H465   1.084       .  S
C461        C462   1.416       .  A
C462        C463   1.507       .  S
C463        H467   1.111       .  S
C463        H468   1.108       .  S
C463        H469   1.110       .  S
C466        H470   1.110       .  S
C466        H471   1.109       .  S
C466        H472   1.111       .  S
C473        C474   1.404       .  A
C473        C478   1.399       .  A
C473        H480   1.084       .  S
C474        C475   1.417       .  A
C475        C476   1.409       .  A
C475        C482   1.506       .  S
C476        C477   1.404       .  A
C476        H481   1.084       .  S
C477        C478   1.413       .  A
C478        C479   1.509       .  S
C479        H483   1.111       .  S
C479        H484   1.110       .  S
C479        H485   1.107       .  S
C482        H486   1.110       .  S
C482        H487   1.108       .  S
C482        H488   1.111       .  S
C489        C490   1.401       .  A
C489        C494   1.402       .  A
C489        H496   1.085       .  S
C490        C491   1.412       .  A
C491        C492   1.406       .  A
C491        C498   1.504       .  S
C492        C493   1.407       .  A
C492        H497   1.084       .  S
C493        C494   1.418       .  A
C494        C495   1.508       .  S
C495        H499   1.111       .  S
C495        H500   1.106       .  S
C495        H501   1.110       .  S
C498        H502   1.107       .  S
C498        H503   1.110       .  S
C498        H504   1.111       .  S
C505        C506   1.408       .  A
C505        C510   1.400       .  A
C505        H512   1.082       .  S
C506        C507   1.424       .  A
C507        C508   1.408       .  A
C507        C514   1.505       .  S
C508        C509   1.401       .  A
C508        H513   1.084       .  S
C509        C510   1.413       .  A
C510        C511   1.509       .  S
C511        H515   1.111       .  S
C511        H516   1.108       .  S
C511        H517   1.109       .  S
C514        H518   1.108       .  S
C514        H519   1.110       .  S
C514        H520   1.111       .  S
C521        C522   1.399       .  A
C521        C526   1.400       .  A
C521        H528   1.084       .  S
C522        C523   1.412       .  A
C523        C524   1.408       .  A
C523        C530   1.505       .  S
C524        C525   1.404       .  A
C524        H529   1.084       .  S
C525        C526   1.413       .  A
C526        C527   1.506   1_545  S
C527        H531   1.111       .  S
C527        H532   1.109       .  S
C527        H533   1.108       .  S
C530        H534   1.111       .  S
C530        H535   1.110       .  S
C530        H536   1.111       .  S
C537        C538   1.405       .  A
C537        C542   1.408       .  A
C537        H544   1.084       .  S
C538        C539   1.413       .  A
C539        C540   1.399       .  A
C539        C546   1.509       .  S
C540        C541   1.402       .  A
C540        H545   1.084       .  S
C541        C542   1.414       .  A
C542        C543   1.506       .  S
C543        H547   1.111       .  S
C543        H548   1.110       .  S
C543        H549   1.110       .  S
C546        H550   1.107       .  S
C546        H551   1.110       .  S
C546        H552   1.111       .  S
C553        C554   1.402       .  A
C553        C558   1.399       .  A
C553        H560   1.084       .  S
C554        C555   1.417       .  A
C555        C556   1.408       .  A
C555        C562   1.506       .  S
C556        C557   1.402       .  A
C556        H561   1.080       .  S
C557        C558   1.408       .  A
C558        C559   1.498       .  S
C559        H563   1.111       .  S
C559        H564   1.109       .  S
C559        H565   1.111       .  S
C562        H566   1.111       .  S
C562        H567   1.107       .  S
C562        H568   1.111       .  S
C569        C570   1.407       .  A
C569        C574   1.405       .  A
C569        H576   1.084       .  S
C570        C571   1.420       .  A
C571        C572   1.404       .  A
C571        C578   1.508       .  S
C572        C573   1.397       .  A
C572        H577   1.082       .  S
C573        C574   1.409       .  A
C574        C575   1.508       .  S
C575        H579   1.111       .  S
C575        H580   1.110       .  S
C575        H581   1.111       .  S
C578        H582   1.110       .  S
C578        H583   1.106       .  S
C578        H584   1.111       .  S
C585        C586   1.409       .  A
C585        C590   1.404       .  A
C585        H592   1.083       .  S
C586        C587   1.421       .  A
C587        C588   1.403       .  A
C587        C594   1.507       .  S
C588        C589   1.401       .  A
C588        H593   1.084       .  S
C589        C590   1.411       .  A
C590        C591   1.507       .  S
C591        H595   1.111       .  S
C591        H596   1.110       .  S
C591        H597   1.111       .  S
C594        H598   1.110       .  S
C594        H599   1.107       .  S
C594        H600   1.111       .  S
C601        C602   1.402       .  A
C601        C606   1.405       .  A
C601        H608   1.084       .  S
C602        C603   1.410       .  A
C603        C604   1.404       .  A
C603        C610   1.505       .  S
C604        C605   1.403       .  A
C604        H609   1.084       .  S
C605        C606   1.412       .  A
C606        C607   1.506       .  S
C607        H611   1.111       .  S
C607        H612   1.111       .  S
C607        H613   1.110       .  S
C610        H614   1.110       .  S
C610        H615   1.109       .  S
C610        H616   1.111       .  S
C617        C618   1.405       .  A
C617        C622   1.408       .  A
C617        H624   1.084       .  S
C618        C619   1.415       .  A
C619        C620   1.401       .  A
C619        C626   1.509       .  S
C620        C621   1.405       .  A
C620        H625   1.084       .  S
C621        C622   1.418       .  A
C622        C623   1.507       .  S
C623        H627   1.111       .  S
C623        H628   1.110       .  S
C623        H629   1.110       .  S
C626        H630   1.106       .  S
C626        H631   1.110       .  S
C626        H632   1.111       .  S
C633        C634   1.401       .  A
C633        C638   1.404       .  A
C633        H640   1.084       .  S
C634        C635   1.412       .  A
C635        C636   1.401       .  A
C635        C642   1.507       .  S
C636        C637   1.403       .  A
C636        H641   1.084       .  S
C637        C638   1.415       .  A
C638        C639   1.508       .  S
C639        H643   1.111       .  S
C639        H644   1.111       .  S
C639        H645   1.109       .  S
C642        H646   1.108       .  S
C642        H647   1.111       .  S
C642        H648   1.111       .  S
C649        C650   1.408       .  A
C649        C654   1.406       .  A
C649        H656   1.083       .  S
C650        C651   1.424       .  A
C651        C652   1.401       .  A
C651        C658   1.510       .  S
C652        C653   1.400       .  A
C652        H657   1.084       .  S
C653        C654   1.415       .  A
C654        C655   1.508       .  S
C655        H659   1.111       .  S
C655        H660   1.107       .  S
C655        H661   1.110       .  S
C658        H662   1.110   1_545  S
C658        H663   1.111       .  S
C658        H664   1.111       .  S
C665        C666   1.406       .  A
C665        C670   1.401       .  A
C665        H672   1.083       .  S
C666        C667   1.417       .  A
C667        C668   1.403       .  A
C667        C674   1.507       .  S
C668        C669   1.401       .  A
C668        H673   1.085       .  S
C669        C670   1.409       .  A
C670        C671   1.505       .  S
C671        H675   1.111       .  S
C671        H676   1.107       .  S
C671        H677   1.109       .  S
C674        H678   1.106       .  S
C674        H679   1.110       .  S
C674        H680   1.111       .  S
C681        C682   1.397       .  A
C681        C686   1.405       .  A
C681        H688   1.085       .  S
C682        C683   1.409       .  A
C683        C684   1.402       .  A
C683        C690   1.509       .  S
C684        C685   1.409       .  A
C684        H689   1.082       .  S
C685        C686   1.426       .  A
C686        C687   1.506       .  S
C687        H691   1.111       .  S
C687        H692   1.108       .  S
C687        H693   1.110       .  S
C690        H694   1.111       .  S
C690        H695   1.110       .  S
C690        H696   1.111       .  S
C697        C698   1.399       .  A
C697        C702   1.400       .  A
C697        H704   1.084       .  S
C698        C699   1.411       .  A
C699        C700   1.405       .  A
C699        C706   1.505       .  S
C700        C701   1.402       .  A
C700        H705   1.084       .  S
C701        C702   1.413       .  A
C702        C703   1.508   1_455  S
C703        H707   1.111       .  S
C703        H708   1.109       .  S
C703        H709   1.111       .  S
C706        H710   1.111       .  S
C706        H711   1.110       .  S
C706        H712   1.111       .  S
C713        C714   1.398       .  A
C713        C718   1.399       .  A
C713        H720   1.085       .  S
C714        C715   1.411       .  A
C715        C716   1.406       .  A
C715        C722   1.505       .  S
C716        C717   1.403       .  A
C716        H721   1.084       .  S
C717        C718   1.416       .  A
C718        C719   1.509       .  S
C719        H723   1.110       .  S
C719        H724   1.107       .  S
C719        H725   1.110       .  S
C722        H726   1.110       .  S
C722        H727   1.110       .  S
C722        H728   1.111       .  S
C729        C730   1.399       .  A
C729        C734   1.400       .  A
C729        H736   1.083       .  S
C730        C731   1.413       .  A
C731        C732   1.405       .  A
C731        C738   1.507       .  S
C732        C733   1.406       .  A
C732        H737   1.084       .  S
C733        C734   1.417       .  A
C734        C735   1.508       .  S
C735        H739   1.111       .  S
C735        H740   1.110       .  S
C735        H741   1.106       .  S
C738        H742   1.107       .  S
C738        H743   1.110       .  S
C738        H744   1.110       .  S
C745        C746   1.401       .  A
C745        C750   1.399       .  A
C745        H752   1.084       .  S
C746        C747   1.414       .  A
C747        C748   1.409       .  A
C747        C754   1.506       .  S
C748        C749   1.406       .  A
C748        H753   1.084       .  S
C749        C750   1.416       .  A
C750        C751   1.508       .  S
C751        H755   1.111       .  S
C751        H756   1.110   1_545  S
C751        H757   1.109       .  S
C754        H758   1.108       .  S
C754        H759   1.110       .  S
C754        H760   1.111       .  S
C761        C762   1.400       .  A
C761        C766   1.403       .  A
C761        H768   1.081   1_455  S
C762        C763   1.409       .  A
C763        C764   1.403       .  A
C763        C770   1.507       .  S
C764        C765   1.405       .  A
C764        H769   1.084       .  S
C765        C766   1.414       .  A
C766        C767   1.507       .  S
C767        H771   1.111       .  S
C767        H772   1.111       .  S
C767        H773   1.108       .  S
C770        H774   1.110       .  S
C770        H775   1.111       .  S
C770        H776   1.111       .  S
C777        C778   1.400       .  A
C777        C782   1.400       .  A
C777        H784   1.084       .  S
C778        C779   1.414       .  A
C779        C780   1.407       .  A
C779        C786   1.506       .  S
C780        C781   1.404       .  A
C780        H785   1.084       .  S
C781        C782   1.416       .  A
C782        C783   1.509       .  S
C783        H787   1.111       .  S
C783        H788   1.111       .  S
C783        H789   1.109       .  S
C786        H790   1.109       .  S
C786        H791   1.110       .  S
C786        H792   1.111       .  S
