geometry optimzed in LAMMPS
_audit_creation_date              2020-11-30 
_audit_creation_method            'lammps2cif' 
_symmetry_space_group_name_H-M    'P1' 
_symmetry_Int_Tables_number       1 
_symmetry_cell_setting            triclinic 
loop_ 
_symmetry_equiv_pos_as_xyz 
  x,y,z 
_cell_length_a                    57.83513139054883 
_cell_length_b                    58.17766100798968 
_cell_length_c                    58.014084341252556 
_cell_angle_alpha                 89.94480585987313 
_cell_angle_beta                  90.25237073173419 
_cell_angle_gamma                 89.96060276331171 
loop_ 
_atom_site_label 
_atom_site_type_symbol 
_atom_site_fract_x 
_atom_site_fract_y 
_atom_site_fract_z 
_atom_site_charge 
C1          C  0.71933531  0.72057077  0.74925464     0.03520
C2          C  0.71135843  0.74144317  0.73941967    -0.12630
C3          C  0.71970532  0.74991053  0.71831360     0.01020
C4          C  0.73757910  0.73817451  0.70725813    -0.11160
C5          C  0.74775527  0.71910563  0.71772311     0.03510
C6          C  0.73903032  0.71068543  0.73857002    -0.10580
H7          H  0.69830467  0.75170357  0.74717192     0.09100
H8          H  0.74331152  0.74351417  0.69032577     0.06630
H9          H  0.74801205  0.69603019  0.74568256     0.06480
C10         C  0.17814470  0.72071341  0.20803486     0.03520
C11         C  0.18673445  0.71142499  0.18744243    -0.12630
C12         C  0.20838350  0.71838470  0.17853994     0.01020
C13         C  0.22008682  0.73641784  0.19016865    -0.11160
C14         C  0.21052074  0.74712308  0.20958110     0.03510
C15         C  0.18975719  0.73893675  0.21857735    -0.10580
H16         H  0.17643052  0.69846453  0.17913217     0.09100
H17         H  0.23720415  0.74173762  0.18498905     0.06630
H18         H  0.18313640  0.74604131  0.23451807     0.06480
C19         C  0.71912781  0.20868490  0.74844560     0.03520
C20         C  0.70912042  0.18972113  0.73734277    -0.12630
C21         C  0.71911085  0.18042331  0.71739146     0.01020
C22         C  0.73979258  0.18994237  0.70905295    -0.11160
C23         C  0.74987274  0.20904644  0.71989090     0.03510
C24         C  0.73933676  0.21842789  0.73949129    -0.10580
H25         H  0.69277509  0.18308512  0.74353543     0.09100
H26         H  0.74749106  0.18322818  0.69345173     0.06630
H27         H  0.74623578  0.23400157  0.74712080     0.06480
C28         C  0.18004984  0.20882139  0.71832690     0.03520
C29         C  0.18797572  0.18746665  0.71025746    -0.12630
C30         C  0.20803672  0.17753635  0.71942496     0.01020
C31         C  0.21832805  0.18711574  0.73907401    -0.11160
C32         C  0.21132308  0.20883106  0.74719299     0.03510
C33         C  0.19245617  0.21972012  0.73615790    -0.10580
H34         H  0.17956564  0.17923301  0.69573366     0.09100
H35         H  0.23262795  0.17809823  0.74703095     0.06630
H36         H  0.18778409  0.23708545  0.74093415     0.06480
C37         C  0.21000106  0.74920296  0.71845751     0.03520
C38         C  0.18871250  0.74033248  0.71059282    -0.12630
C39         C  0.18104003  0.71850055  0.71753914     0.01020
C40         C  0.19316450  0.70694407  0.73505986    -0.11160
C41         C  0.21352906  0.71619040  0.74435684     0.03510
C42         C  0.22226265  0.73689154  0.73548790    -0.10580
H43         H  0.17874107  0.74975856  0.69787795     0.09100
H44         H  0.18746652  0.69013044  0.74073113     0.06630
H45         H  0.23895601  0.74291266  0.74142605     0.06480
C46         C  0.71823112  0.20866705  0.17905669     0.03520
C47         C  0.70933543  0.18843271  0.18865978    -0.12630
C48         C  0.71715805  0.18054080  0.21025326     0.01020
C49         C  0.73426285  0.19327490  0.22182118    -0.11160
C50         C  0.74485471  0.21236997  0.21141065     0.03510
C51         C  0.73698538  0.21966698  0.18966188    -0.10580
H52         H  0.69547232  0.17959639  0.17973391     0.09100
H53         H  0.73908151  0.18861211  0.23926409     0.06630
H54         H  0.74443091  0.23471655  0.18159083     0.06480
O55         O  0.48928612  0.48875848  0.12711350    -0.72560
O56         O  0.44056908  0.43807241  0.12935423    -0.73540
O57         O  0.48998443  0.43931747  0.12620742    -0.62160
O58         O  0.43987479  0.48769116  0.13066135    -0.70570
O59         O  0.43695263  0.48784606  0.09245980    -0.70120
O60         O  0.48679892  0.44078355  0.08823774    -0.61370
O61         O  0.43868654  0.43949732  0.09117756    -0.73880
O62         O  0.48517388  0.48914684  0.08924025    -0.72660
Cu63       Cu  0.46500995  0.46345138  0.12980575     1.04560
Cu64       Cu  0.46181939  0.46437192  0.08910616     1.04330
C65         C  0.49463570  0.49715327  0.10743635     0.93640
C66         C  0.43253787  0.43046389  0.11020130     0.92780
C67         C  0.49606087  0.43215640  0.10631476     0.84930
C68         C  0.43068513  0.49536711  0.11209792     0.91200
N69         N  0.33455687  0.33678323  0.09078977    -0.26900
N70         N  0.33791767  0.34448327  0.06968413    -0.34760
C71         C  0.35344183  0.36154656  0.07022934     0.01440
C72         C  0.36028957  0.36495667  0.09284414     0.07460
C73         C  0.34799341  0.34884932  0.10551491    -0.05640
H74         H  0.35996131  0.37027047  0.05511400     0.08130
H75         H  0.34948781  0.34546894  0.12380126     0.09330
Cu76       Cu  0.32303500  0.32982314  0.04093218     0.44170
Cu77       Cu  0.31266675  0.30914255  0.09644672     0.41990
Cu78       Cu  0.28535911  0.28078037  0.04494308     0.43880
N79         N  0.30927869  0.31313714  0.01274063    -0.34290
N80         N  0.29535927  0.29515688  0.01360653    -0.28540
C81         C  0.28999072  0.28879634  0.99183983    -0.04640
C82         C  0.30126735  0.30352694  0.97679264     0.07570
C83         C  0.31327152  0.31863869  0.99070453     0.01370
H84         H  0.27895183  0.27446832  0.98734037     0.09020
H85         H  0.32421925  0.33268769  0.98528095     0.08100
N86         N  0.27919795  0.27208594  0.07927229    -0.35740
N87         N  0.28901014  0.28231650  0.09722247    -0.27800
C88         C  0.28022141  0.27349076  0.11665477    -0.03160
C89         C  0.26421442  0.25683824  0.11089573     0.05450
C90         C  0.26391870  0.25639962  0.08702737     0.03550
H91         H  0.28470150  0.27928560  0.13381955     0.08650
H92         H  0.25275297  0.24615571  0.07611758     0.07480
N93         N  0.33653699  0.59166033  0.09078237    -0.26900
N94         N  0.34172842  0.58503252  0.06966086    -0.34760
C95         C  0.35805616  0.56864048  0.07064690     0.01440
C96         C  0.36356280  0.56488594  0.09351223     0.07460
C97         C  0.34955356  0.57964129  0.10591608    -0.05640
H98         H  0.36562327  0.56032745  0.05580593     0.08130
H99         H  0.34902661  0.58164882  0.12444113     0.09330
Cu100      Cu  0.32699037  0.59938784  0.04056577     0.44170
Cu101      Cu  0.31220874  0.61725634  0.09671774     0.41990
Cu102      Cu  0.28690981  0.64659529  0.04528681     0.43880
N103        N  0.31228278  0.61584037  0.01258397    -0.34290
N104        N  0.29749990  0.63313077  0.01374172    -0.28540
C105        C  0.29183710  0.63967498  0.99208011    -0.04640
C106        C  0.30384205  0.62582445  0.97677230     0.07570
C107        C  0.31654238  0.61098911  0.99044613     0.01370
H108        H  0.28021191  0.65363797  0.98783011     0.09020
H109        H  0.32823774  0.59764616  0.98478473     0.08100
N110        N  0.27956797  0.65479493  0.07949782    -0.35740
N111        N  0.28814168  0.64382050  0.09766203    -0.27920
C112        C  0.27876195  0.65261725  0.11689121    -0.03160
C113        C  0.26390948  0.67013994  0.11063729     0.05450
C114        C  0.26473833  0.67106842  0.08684399     0.03550
H115        H  0.28239352  0.64659232  0.13418312     0.08650
H116        H  0.25480575  0.68227288  0.07567465     0.07480
N117        N  0.59533270  0.33889133  0.08737491    -0.26900
N118        N  0.59353437  0.34693375  0.06618976    -0.34760
C119        C  0.57707269  0.36310005  0.06539432     0.01440
C120        C  0.56742783  0.36511673  0.08707506     0.07460
C121        C  0.57974200  0.34973880  0.10078092    -0.05640
H122        H  0.57201882  0.37216059  0.04988274     0.08130
H123        H  0.57697060  0.34608488  0.11884689     0.09330
Cu124      Cu  0.61070973  0.33304794  0.03858742     0.44170
Cu125      Cu  0.61856248  0.31260786  0.09474941     0.41990
Cu126      Cu  0.64547344  0.28250657  0.04406947     0.43880
N127        N  0.62276148  0.31466654  0.01089011    -0.34290
N128        N  0.63549542  0.29586095  0.01228705    -0.28540
C129        C  0.63929054  0.28790149  0.99076946    -0.04640
C130        C  0.62809916  0.30242293  0.97535784     0.07570
C131        C  0.61787231  0.31910477  0.98877044     0.01370
H132        H  0.64892790  0.27249329  0.98672474     0.09020
H133        H  0.60731453  0.33335057  0.98297231     0.08100
N134        N  0.65284207  0.27592258  0.07859986    -0.35740
N135        N  0.64366242  0.28700101  0.09628125    -0.27920
C136        C  0.65306084  0.27893110  0.11586156    -0.03160
C137        C  0.66890617  0.26192333  0.11047587     0.05450
C138        C  0.66811264  0.26034289  0.08664632     0.03550
H139        H  0.64862460  0.28511465  0.13285624     0.08650
H140        H  0.67767447  0.24856278  0.07587326     0.07480
N141        N  0.59462274  0.58997868  0.08864684    -0.26900
N142        N  0.59380178  0.58121307  0.06773380    -0.34760
C143        C  0.57768330  0.56476185  0.06685462     0.01440
C144        C  0.56700506  0.56340115  0.08812587     0.07460
C145        C  0.57855932  0.57942763  0.10175581    -0.05640
H146        H  0.57368213  0.55502817  0.05149086     0.08130
H147        H  0.57501053  0.58365514  0.11954662     0.09330
Cu148      Cu  0.61146197  0.59478597  0.04032751     0.44170
Cu149      Cu  0.61788916  0.61627404  0.09580675     0.41990
Cu150      Cu  0.64782173  0.64403541  0.04505482     0.43880
N151        N  0.62339118  0.61283109  0.01239760    -0.34290
N152        N  0.63668682  0.63124141  0.01346052    -0.28540
C153        C  0.64062289  0.63877772  0.99180187    -0.04640
C154        C  0.62905199  0.62429165  0.97666400     0.07570
C155        C  0.61834210  0.60817584  0.99038327     0.01370
H156        H  0.65102999  0.65359144  0.98744780     0.09020
H157        H  0.60758101  0.59399836  0.98486568     0.08100
N158        N  0.65506823  0.65026645  0.07966830    -0.35740
N159        N  0.64446636  0.64037440  0.09728745    -0.27920
C160        C  0.65342715  0.64859899  0.11697110    -0.03160
C161        C  0.67043168  0.66447391  0.11173233     0.05450
C162        C  0.67098652  0.66509211  0.08786723     0.03550
H163        H  0.64772745  0.64347098  0.13394781     0.08650
H164        H  0.68158319  0.67603982  0.07716991     0.07480
O165        O  0.48791856  0.48926496  0.79966904    -0.72560
O166        O  0.44083292  0.43815281  0.80119221    -0.73540
O167        O  0.43875670  0.48729271  0.80086543    -0.62160
O168        O  0.49005568  0.44019239  0.80028437    -0.70570
O169        O  0.49066184  0.44085070  0.83858515    -0.70120
O170        O  0.44025988  0.48761411  0.83916172    -0.61370
O171        O  0.44186614  0.43885169  0.83946004    -0.73880
O172        O  0.48878544  0.48934982  0.83791627    -0.72660
Cu173      Cu  0.46433382  0.46369392  0.79910104     1.04560
Cu174      Cu  0.46539669  0.46414901  0.84006399     1.04330
C175        C  0.49580032  0.49727109  0.81863607     0.93640
C176        C  0.43423509  0.43027113  0.82064898     0.92780
C177        C  0.43178160  0.49503756  0.82024434     0.84930
C178        C  0.49846090  0.43329757  0.81950440     0.91200
N179        N  0.33682819  0.33598450  0.83823012    -0.26900
N180        N  0.34124164  0.34318638  0.85935962    -0.34760
C181        C  0.35721507  0.35988138  0.85861944     0.01440
C182        C  0.36299804  0.36360134  0.83586768     0.07460
C183        C  0.35001315  0.34793205  0.82333303    -0.05640
H184        H  0.36436765  0.36844816  0.87357909     0.08130
H185        H  0.35033799  0.34522981  0.80489004     0.09330
Cu186      Cu  0.32583745  0.32926395  0.88809336     0.44170
Cu187      Cu  0.31284574  0.31017940  0.83206729     0.41990
Cu188      Cu  0.28194382  0.28551542  0.88267219     0.43880
N189        N  0.31031129  0.31342150  0.91575368    -0.34290
N190        N  0.29434502  0.29723261  0.91436886    -0.28540
C191        C  0.28848188  0.29078219  0.93594493    -0.04640
C192        C  0.30141106  0.30371138  0.95140968     0.07570
C193        C  0.31498504  0.31779412  0.93793929     0.01370
H194        H  0.27571926  0.27783742  0.94003503     0.09020
H195        H  0.32747939  0.33036024  0.94376559     0.08100
N196        N  0.27489352  0.27760507  0.84825949    -0.35740
N197        N  0.28652097  0.28596599  0.83049090    -0.27920
C198        C  0.27822596  0.27664883  0.81097357    -0.03160
C199        C  0.26035033  0.26200732  0.81655454     0.05450
C200        C  0.25867526  0.26293304  0.84032615     0.03550
H201        H  0.28467866  0.28037173  0.79389621     0.08650
H202        H  0.24686953  0.25333387  0.85107353     0.07480
N203        N  0.33611782  0.59000933  0.83886296    -0.26900
N204        N  0.34504502  0.58754713  0.85968463    -0.34760
C205        C  0.36298755  0.57294866  0.85873497     0.01440
C206        C  0.36535955  0.56583208  0.83618319     0.07460
C207        C  0.34796626  0.57678505  0.82397695    -0.05640
H208        H  0.37325850  0.56758410  0.87341787     0.08130
H209        H  0.34433099  0.57541325  0.80572301     0.09330
Cu210      Cu  0.33125778  0.60350416  0.88816075     0.44170
Cu211      Cu  0.30894457  0.61229837  0.83295520     0.41990
Cu212      Cu  0.28396656  0.64428956  0.88256773     0.43880
N213        N  0.31448680  0.61831145  0.91565880    -0.34290
N214        N  0.29731646  0.63328289  0.91432146    -0.28540
C215        C  0.29068750  0.63875605  0.93596015    -0.04640
C216        C  0.30434968  0.62643035  0.95137403     0.07570
C217        C  0.31913560  0.61374154  0.93781508     0.01370
H218        H  0.27682032  0.65050477  0.94012778     0.09020
H219        H  0.33237007  0.60188020  0.94356157     0.08100
N220        N  0.27557457  0.64994859  0.84785046    -0.35740
N221        N  0.28457238  0.63817841  0.83053408    -0.27920
C222        C  0.27611303  0.64627116  0.81056287    -0.03160
C223        C  0.26089661  0.66391543  0.81524848     0.05450
C224        C  0.26101773  0.66589366  0.83910521     0.03550
H225        H  0.28084641  0.63978612  0.79375832     0.08650
H226        H  0.25158087  0.67826880  0.84931574     0.07480
N227        N  0.59388563  0.33753034  0.83756510    -0.26900
N228        N  0.58521780  0.34024229  0.85839220    -0.34760
C229        C  0.56765776  0.35530156  0.85744425     0.01440
C230        C  0.56504079  0.36227285  0.83485826     0.07460
C231        C  0.58206767  0.35090755  0.82264958    -0.05640
H232        H  0.55784847  0.36110724  0.87217329     0.08130
H233        H  0.58570323  0.35239064  0.80443449     0.09330
Cu234      Cu  0.59862415  0.32403375  0.88701014     0.44170
Cu235      Cu  0.62111974  0.31520656  0.83170621     0.41990
Cu236      Cu  0.64351524  0.28125149  0.88151305     0.43880
N237        N  0.61498654  0.30867668  0.91456920    -0.34290
N238        N  0.63134743  0.29287299  0.91318181    -0.28540
C239        C  0.63849774  0.28751325  0.93472539    -0.04640
C240        C  0.62604949  0.30082915  0.95013790     0.07570
C241        C  0.61136924  0.31393181  0.93670797     0.01370
H242        H  0.65213040  0.27541085  0.93878760     0.09020
H243        H  0.59910815  0.32670047  0.94251034     0.08100
N244        N  0.65213101  0.27569542  0.84709938    -0.35740
N245        N  0.64472412  0.28848710  0.82968439    -0.27920
C246        C  0.65348321  0.28025444  0.80997368    -0.03160
C247        C  0.66662012  0.26096699  0.81493012     0.05450
C248        C  0.66563759  0.25881047  0.83872826     0.03550
H249        H  0.65024122  0.28777025  0.79321429     0.08650
H250        H  0.67375235  0.24565902  0.84918995     0.07480
N251        N  0.59219624  0.59197073  0.83818866    -0.26900
N252        N  0.58846746  0.58478340  0.85943879    -0.34760
C253        C  0.57139591  0.56921011  0.85934901     0.01440
C254        C  0.56345025  0.56685487  0.83701940     0.07460
C255        C  0.57733213  0.58115217  0.82387223    -0.05640
H256        H  0.56489528  0.56059528  0.87453498     0.08130
H257        H  0.57643886  0.58375339  0.80542411     0.09330
Cu258      Cu  0.60504419  0.59803955  0.88786967     0.44170
Cu259      Cu  0.61710203  0.61681290  0.83128942     0.41990
Cu260      Cu  0.64285378  0.64617857  0.88278281     0.43880
N261        N  0.61912460  0.61487179  0.91572260    -0.34290
N262        N  0.63293300  0.63288435  0.91441716    -0.28540
C263        C  0.63874352  0.63950107  0.93597346    -0.04640
C264        C  0.62792147  0.62481318  0.95135577     0.07570
C265        C  0.61566054  0.60952426  0.93786580     0.01370
H266        H  0.65009511  0.65370364  0.94008435     0.09020
H267        H  0.60501090  0.59538787  0.94363148     0.08100
N268        N  0.65103556  0.65309680  0.84866543    -0.35740
N269        N  0.64246476  0.64220761  0.83046813    -0.27920
C270        C  0.65263744  0.65043217  0.81136387    -0.03160
C271        C  0.66813286  0.66727357  0.81786336     0.05450
C272        C  0.66661701  0.66868145  0.84152602     0.03550
H273        H  0.64888834  0.64470024  0.79401031     0.08650
H274        H  0.67636047  0.67993925  0.85277178     0.07480
O275        O  0.43963170  0.12963543  0.48957070    -0.72560
O276        O  0.48894735  0.12637401  0.43960447    -0.73540
O277        O  0.43922710  0.12684430  0.44015835    -0.62160
O278        O  0.48919358  0.13017163  0.48864993    -0.70570
O279        O  0.49059044  0.09201113  0.48945078    -0.70120
O280        O  0.43790966  0.08895071  0.44453095    -0.61370
O281        O  0.48646767  0.08846906  0.44144221    -0.73880
O282        O  0.44195719  0.09168092  0.49273868    -0.72660
Cu283      Cu  0.46419283  0.12970905  0.46435805     1.04560
Cu284      Cu  0.46419345  0.08905908  0.46709367     1.04330
C285        C  0.43360872  0.11081797  0.49936758     0.93640
C286        C  0.49572084  0.10644353  0.43303596     0.92780
C287        C  0.43038948  0.10736348  0.43509590     0.84930
C288        C  0.49806585  0.11153127  0.49624377     0.91200
N289        N  0.33940177  0.08829661  0.33392018    -0.26900
N290        N  0.34166534  0.06712508  0.34174065    -0.34760
C291        C  0.35663303  0.06692695  0.35943344     0.01440
C292        C  0.36440682  0.08909973  0.36298778     0.07460
C293        C  0.35301946  0.10233676  0.34653688    -0.05640
H294        H  0.36146504  0.05171910  0.36906933     0.08130
H295        H  0.35417001  0.12075675  0.34424413     0.09330
Cu296      Cu  0.32404553  0.03968711  0.32798550     0.44170
Cu297      Cu  0.31660569  0.09532115  0.30708546     0.41990
Cu298      Cu  0.28122565  0.04616421  0.28351537     0.43880
N299        N  0.30759791  0.01250131  0.31238534    -0.34290
N300        N  0.29189590  0.01407392  0.29585370    -0.28540
C301        C  0.28576041  0.99257451  0.28937859    -0.04640
C302        C  0.29833867  0.97701492  0.30263183     0.07570
C303        C  0.31188273  0.99037425  0.31693606     0.01370
H304        H  0.27334212  0.98859874  0.27596936     0.09020
H305        H  0.32430609  0.98453191  0.32964012     0.08100
N306        N  0.27714385  0.08087430  0.27487794    -0.35740
N307        N  0.29040992  0.09778703  0.28256867    -0.27920
C308        C  0.28332635  0.11763922  0.27310753    -0.03160
C309        C  0.26456631  0.11337343  0.25881275     0.05450
C310        C  0.26103099  0.08980644  0.26058646     0.03550
H311        H  0.29123570  0.13409332  0.27670984     0.08650
H312        H  0.24743572  0.07984617  0.25255698     0.07480
N313        N  0.59082498  0.09042359  0.33488015    -0.26900
N314        N  0.58206951  0.06951942  0.33564063    -0.34760
C315        C  0.56448113  0.06907673  0.35052814     0.01440
C316        C  0.56189485  0.09076756  0.35995471     0.07460
C317        C  0.57903257  0.10396067  0.34963189    -0.05640
H318        H  0.55483262  0.05374483  0.35482169     0.08130
H319        H  0.58323416  0.12171459  0.35324146     0.09330
Cu320      Cu  0.59634516  0.04162684  0.31924874     0.44170
Cu321      Cu  0.61894049  0.09742354  0.31387026     0.41990
Cu322      Cu  0.64879621  0.04619141  0.28782373     0.43880
N323        N  0.61427234  0.01358319  0.30722533    -0.34290
N324        N  0.63393603  0.01468905  0.29580544    -0.28540
C325        C  0.64122398  0.99310399  0.29131734    -0.04640
C326        C  0.62528191  0.97790764  0.30056943     0.07570
C327        C  0.60851994  0.99154572  0.31047696     0.01370
H328        H  0.65697056  0.98883517  0.28227764     0.09020
H329        H  0.59329096  0.98594247  0.31965687     0.08100
N330        N  0.65623119  0.08044744  0.28076329    -0.35740
N331        N  0.64521271  0.09841011  0.28952012    -0.27920
C332        C  0.65297815  0.11761542  0.27928575    -0.03160
C333        C  0.66969088  0.11151268  0.26352774     0.05450
C334        C  0.67150400  0.08790323  0.26499442     0.03550
H335        H  0.64655983  0.13474127  0.28271248     0.08650
H336        H  0.68233481  0.07686383  0.25462477     0.07480
N337        N  0.33444091  0.09005636  0.59087645    -0.26900
N338        N  0.33982474  0.06892039  0.58467000    -0.34760
C339        C  0.35589108  0.06964277  0.56811841     0.01440
C340        C  0.36079767  0.09239505  0.56339487     0.07460
C341        C  0.34694370  0.10498898  0.57821665    -0.05640
H342        H  0.36392334  0.05467027  0.56052010     0.08130
H343        H  0.34670799  0.12346096  0.58031400     0.09330
Cu344      Cu  0.32589705  0.04016374  0.59988655     0.44170
Cu345      Cu  0.31131973  0.09572515  0.61752599     0.41990
Cu346      Cu  0.28218304  0.04448854  0.64368892     0.43880
N347        N  0.31089082  0.01219810  0.61555727    -0.34290
N348        N  0.29483955  0.01317470  0.63166749    -0.28540
C349        C  0.28904754  0.99151098  0.63771878    -0.04640
C350        C  0.30209833  0.97642897  0.62458221     0.07570
C351        C  0.31568875  0.99019829  0.61082237     0.01370
H352        H  0.27618677  0.98710590  0.65046308     0.09020
H353        H  0.32817217  0.98470505  0.59813623     0.08100
N354        N  0.27573774  0.07867228  0.65241161    -0.35740
N355        N  0.28695865  0.09648762  0.64372704    -0.27920
C356        C  0.27923868  0.11576357  0.65373038    -0.03160
C357        C  0.26209575  0.11015198  0.66939664     0.05450
C358        C  0.26023212  0.08638553  0.66787027     0.03550
H359        H  0.28565638  0.13271830  0.64959905     0.08650
H360        H  0.24819519  0.07542886  0.67690147     0.07480
N361        N  0.59230207  0.09067190  0.59278731    -0.26900
N362        N  0.58604418  0.06978707  0.58647793    -0.34760
C363        C  0.56967422  0.07128308  0.57007701     0.01440
C364        C  0.56527280  0.09425655  0.56604225     0.07460
C365        C  0.58011933  0.10616317  0.58047727    -0.05640
H366        H  0.56166631  0.05673593  0.56162216     0.08130
H367        H  0.58198545  0.12461101  0.58186809     0.09330
Cu368      Cu  0.60050012  0.04053482  0.60045849     0.44170
Cu369      Cu  0.61712537  0.09594212  0.61795649     0.41990
Cu370      Cu  0.64542657  0.04484217  0.64400634     0.43880
N371        N  0.61641128  0.01263642  0.61563339    -0.34290
N372        N  0.63293598  0.01365115  0.63141827    -0.28540
C373        C  0.63908975  0.99200967  0.63724584    -0.04640
C374        C  0.62565495  0.97688759  0.62447099     0.07570
C375        C  0.61155600  0.99061021  0.61103088     0.01370
H376        H  0.65218383  0.98764777  0.64988817     0.09020
H377        H  0.59862354  0.98506597  0.59871606     0.08100
N378        N  0.65260142  0.07886262  0.65282704    -0.35740
N379        N  0.64217431  0.09689226  0.64349092    -0.27920
C380        C  0.65096475  0.11615364  0.65268590    -0.03160
C381        C  0.66764785  0.11016438  0.66870058     0.05450
C382        C  0.66841067  0.08635064  0.66821030     0.03550
H383        H  0.64578766  0.13336470  0.64780000     0.08650
H384        H  0.68019185  0.07524624  0.67748833     0.07480
O385        O  0.49017055  0.80200402  0.43973941    -0.72560
O386        O  0.43974926  0.79844752  0.48794176    -0.73540
O387        O  0.44070224  0.80136122  0.43847159    -0.62160
O388        O  0.48915866  0.79894453  0.48887040    -0.70570
O389        O  0.48758281  0.83702776  0.49128593    -0.70120
O390        O  0.44114620  0.83945105  0.44072340    -0.61370
O391        O  0.43921322  0.83656432  0.48933389    -0.73880
O392        O  0.48956548  0.83996947  0.44298425    -0.72660
Cu393      Cu  0.46490402  0.79875071  0.46365114     1.04560
Cu394      Cu  0.46430487  0.83947586  0.46613045     1.04330
C395        C  0.49808699  0.82177544  0.43415855     0.93640
C396        C  0.43175749  0.81715314  0.49632979     0.92780
C397        C  0.43381271  0.82101721  0.43131346     0.84930
C398        C  0.49585172  0.81781507  0.49799533     0.91200
N399        N  0.33645067  0.83978841  0.33633550    -0.26900
N400        N  0.34022294  0.86118395  0.34278259    -0.34760
C401        C  0.35612870  0.86146920  0.35963088     0.01440
C402        C  0.36266710  0.83907509  0.36424860     0.07460
C403        C  0.34990052  0.82567153  0.34906564    -0.05640
H404        H  0.36274828  0.87690725  0.36767765     0.08130
H405        H  0.35082363  0.80721967  0.34696627     0.09330
Cu406      Cu  0.32418224  0.88883169  0.32752561     0.44170
Cu407      Cu  0.31348890  0.83278988  0.30981044     0.41990
Cu408      Cu  0.28249856  0.88265579  0.28182466     0.43880
N409        N  0.30826962  0.91610153  0.31146080    -0.34290
N410        N  0.29290252  0.91466815  0.29460730    -0.28540
C411        C  0.28652710  0.93622618  0.28848379    -0.04640
C412        C  0.29861524  0.95166136  0.30228586     0.07570
C413        C  0.31213240  0.93817695  0.31652821     0.01370
H414        H  0.27417195  0.94032924  0.27504233     0.09020
H415        H  0.32408104  0.94389909  0.32971221     0.08100
N416        N  0.27702908  0.84779927  0.27453734    -0.35740
N417        N  0.28836875  0.83053562  0.28434514    -0.27920
C418        C  0.28018125  0.81058599  0.27611112    -0.03160
C419        C  0.26254514  0.81523473  0.26067002     0.05450
C420        C  0.26122531  0.83903004  0.25982779     0.03550
H421        H  0.28649986  0.79385104  0.28129966     0.08650
H422        H  0.24924174  0.84921652  0.24972369     0.07480
N423        N  0.59077147  0.83988492  0.33476425    -0.26900
N424        N  0.58316941  0.86108815  0.33743175    -0.34760
C425        C  0.56617435  0.86128960  0.35302625     0.01440
C426        C  0.56266841  0.83906970  0.36067477     0.07460
C427        C  0.57865358  0.82583124  0.34875380    -0.05640
H428        H  0.55754972  0.87666910  0.35899402     0.08130
H429        H  0.58189987  0.80763125  0.35083973     0.09330
Cu430      Cu  0.59790773  0.88913179  0.32178840     0.44170
Cu431      Cu  0.61843335  0.83325533  0.31298629     0.41990
Cu432      Cu  0.64843020  0.88432226  0.28676124     0.43880
N433        N  0.61522652  0.91696536  0.30857758    -0.34290
N434        N  0.63410977  0.91583427  0.29590985    -0.28540
C435        C  0.64097679  0.93743100  0.29082936    -0.04640
C436        C  0.62550846  0.95262638  0.30087507     0.07570
C437        C  0.60951190  0.93899202  0.31193052     0.01370
H438        H  0.65598988  0.94170990  0.28063387     0.09020
H439        H  0.59479033  0.94458847  0.32189966     0.08100
N440        N  0.65627712  0.84999279  0.28020833    -0.35740
N441        N  0.64549489  0.83214983  0.28946798    -0.27920
C442        C  0.65408100  0.81275258  0.28038004    -0.03160
C443        C  0.67114730  0.81846883  0.26479380     0.05450
C444        C  0.67204135  0.84223831  0.26503677     0.03550
H445        H  0.64795648  0.79566562  0.28447538     0.08650
H446        H  0.68272605  0.85312820  0.25435362     0.07480
N447        N  0.33512763  0.83778204  0.59055727    -0.26900
N448        N  0.33910644  0.85888867  0.58320093    -0.34760
C449        C  0.35578693  0.85845149  0.56722025     0.01440
C450        C  0.36315400  0.83603016  0.56468817     0.07460
C451        C  0.34942313  0.82322059  0.57943752    -0.05640
H452        H  0.36245363  0.87347064  0.55847568     0.08130
H453        H  0.35013647  0.80484789  0.58223783     0.09330
Cu454      Cu  0.32339511  0.88757475  0.59681757     0.44170
Cu455      Cu  0.31082571  0.83141476  0.61617562     0.41990
Cu456      Cu  0.28575454  0.88285616  0.64553399     0.43880
N457        N  0.30971534  0.91550284  0.61378953    -0.34290
N458        N  0.29585706  0.91430038  0.63179048    -0.28540
C459        C  0.29057729  0.93585306  0.63860765    -0.04640
C460        C  0.30188167  0.95113862  0.62417461     0.07570
C461        C  0.31379717  0.93758563  0.60873516     0.01370
H462        H  0.27959165  0.94004003  0.65305386     0.09020
H463        H  0.32476469  0.94328612  0.59480295     0.08100
N464        N  0.27786903  0.84882520  0.65332063    -0.35740
N465        N  0.28623122  0.83067323  0.64234294    -0.27920
C466        C  0.27611387  0.81163317  0.65070504    -0.03160
C467        C  0.26084191  0.81803524  0.66779351     0.05450
C468        C  0.26248754  0.84167841  0.66915222     0.03550
H469        H  0.27946780  0.79437669  0.64463514     0.08650
H470        H  0.25263297  0.85292973  0.68023498     0.07480
N471        N  0.59290668  0.83777657  0.59190536    -0.26900
N472        N  0.58486949  0.85867582  0.58806694    -0.34760
C473        C  0.56670491  0.85746465  0.57368955     0.01440
C474        C  0.56310680  0.83465680  0.56815982     0.07460
C475        C  0.58017621  0.82256860  0.57978507    -0.05640
H476        H  0.55688339  0.87212282  0.56762292     0.08130
H477        H  0.58281570  0.80415901  0.57983915     0.09330
Cu478      Cu  0.59922977  0.88778892  0.60235005     0.44170
Cu479      Cu  0.61995134  0.83220251  0.61468765     0.41990
Cu480      Cu  0.64761193  0.88361718  0.64138967     0.43880
N481        N  0.61579509  0.91584943  0.61640520    -0.34290
N482        N  0.63357393  0.91484080  0.63075682    -0.28540
C483        C  0.64000811  0.93646466  0.63624209    -0.04640
C484        C  0.62554141  0.95159442  0.62460854     0.07570
C485        C  0.61048099  0.93788053  0.61226586     0.01370
H486        H  0.65420165  0.94080793  0.64763391     0.09020
H487        H  0.59663343  0.94343561  0.60096987     0.08100
N488        N  0.65571414  0.84960079  0.64919433    -0.35740
N489        N  0.64539985  0.83148766  0.63990217    -0.27920
C490        C  0.65353096  0.81232986  0.64997163    -0.03160
C491        C  0.66975071  0.81857873  0.66629476     0.05450
C492        C  0.67092972  0.84228474  0.66525144     0.03550
H493        H  0.64780052  0.79509492  0.64591458     0.08650
H494        H  0.68143593  0.85342361  0.67592102     0.07480
C495        C  0.71688981  0.74918511  0.20980236     0.03520
C496        C  0.73622365  0.73899387  0.22048133    -0.12630
C497        C  0.74668077  0.71942305  0.21101025     0.01020
C498        C  0.73765182  0.70972763  0.19081499    -0.11160
C499        C  0.71807048  0.71931749  0.18022674     0.03510
C500        C  0.70831145  0.73951753  0.18925833    -0.10580
H501        H  0.74256842  0.74563182  0.23677223     0.09100
H502        H  0.74480289  0.69376473  0.18435524     0.06630
H503        H  0.69339548  0.74699975  0.18078886     0.06480
O504        O  0.08989491  0.48985163  0.44191402    -0.72560
O505        O  0.09103237  0.43917148  0.48722577    -0.73540
O506        O  0.09078214  0.48756344  0.49030948    -0.62160
O507        O  0.09056265  0.44179408  0.43884067    -0.70570
O508        O  0.12896738  0.44123632  0.43895904    -0.70120
O509        O  0.12911023  0.48863453  0.48975445    -0.61370
O510        O  0.12929036  0.43930570  0.48821580    -0.73880
O511        O  0.12811254  0.49080300  0.44042679    -0.72660
Cu512      Cu  0.08935873  0.46459343  0.46461455     1.04560
Cu513      Cu  0.13032569  0.46502289  0.46433185     1.04330
C514        C  0.10840102  0.49842263  0.43371508     0.93640
C515        C  0.10998990  0.43092257  0.49492060     0.92780
C516        C  0.10988020  0.49562118  0.49792601     0.84930
C517        C  0.10963669  0.43419547  0.43088572     0.91200
N518        N  0.08890191  0.33422177  0.34030041    -0.26900
N519        N  0.06798568  0.34312752  0.34202769    -0.34760
C520        C  0.06850953  0.36093036  0.35667670     0.01440
C521        C  0.09081669  0.36329648  0.36487406     0.07460
C522        C  0.10343034  0.34612047  0.35409085    -0.05640
H523        H  0.05366462  0.37128538  0.36120551     0.08130
H524        H  0.12174856  0.34275552  0.35589175     0.09330
Cu525      Cu  0.03956142  0.33015977  0.32502630     0.44170
Cu526      Cu  0.09525086  0.30683148  0.31819210     0.41990
Cu527      Cu  0.04445528  0.28113636  0.28771277     0.43880
N528        N  0.01169783  0.31425821  0.30969002    -0.34290
N529        N  0.01294279  0.29600587  0.29621978    -0.28540
C530        C  0.99133640  0.28994241  0.28979869    -0.04640
C531        C  0.97598078  0.30526003  0.29977213     0.07570
C532        C  0.98953006  0.32035625  0.31221295     0.01370
H533        H  0.98716459  0.27556588  0.27872854     0.09020
H534        H  0.98376366  0.33469013  0.32256728     0.08100
N535        N  0.07879147  0.27212710  0.28215016    -0.35740
N536        N  0.09668467  0.28139087  0.29301898    -0.27920
C537        C  0.11624178  0.27278330  0.28413102    -0.03160
C538        C  0.11056716  0.25731716  0.26690052     0.05450
C539        C  0.08663268  0.25732602  0.26612868     0.03550
H540        H  0.13342998  0.27788270  0.28948668     0.08650
H541        H  0.07569057  0.24821262  0.25406759     0.07480
N542        N  0.08863798  0.58957579  0.33285125    -0.26900
N543        N  0.06736564  0.58176162  0.33505065    -0.34760
C544        C  0.06678904  0.56619638  0.35207401     0.01440
C545        C  0.08870059  0.56444115  0.36167114     0.07460
C546        C  0.10227756  0.57926492  0.34871826    -0.05640
H547        H  0.05127461  0.55741343  0.35753953     0.08130
H548        H  0.12042885  0.58299926  0.35127397     0.09330
Cu549      Cu  0.03943772  0.59556917  0.31768961     0.44170
Cu550      Cu  0.09599235  0.61526393  0.30915167     0.41990
Cu551      Cu  0.04556969  0.64686677  0.28359717     0.43880
N552        N  0.01186245  0.61447125  0.30530871    -0.34290
N553        N  0.01351769  0.63340859  0.29282519    -0.28540
C554        C  0.99203702  0.64181447  0.28906176    -0.04640
C555        C  0.97636557  0.62751597  0.30005407     0.07570
C556        C  0.98960180  0.61044859  0.31008523     0.01370
H557        H  0.98821953  0.65754451  0.27983840     0.09020
H558        H  0.98358350  0.59632136  0.32060192     0.08100
N559        N  0.08029499  0.65402158  0.27716648    -0.35740
N560        N  0.09791400  0.64205463  0.28552538    -0.27920
C561        C  0.11765074  0.65047929  0.27687828    -0.03160
C562        C  0.11253612  0.66916558  0.26289546     0.05450
C563        C  0.08857120  0.67067441  0.26333432     0.03550
H564        H  0.13446508  0.64314083  0.28041301     0.08650
H565        H  0.07783640  0.68297124  0.25427142     0.07480
N566        N  0.08994368  0.33992207  0.59508776    -0.26900
N567        N  0.06863155  0.34724679  0.59159241    -0.34760
C568        C  0.06846685  0.36249283  0.57427607     0.01440
C569        C  0.09076050  0.36466776  0.56600580     0.07460
C570        C  0.10408038  0.35035108  0.57988175    -0.05640
H571        H  0.05305228  0.37082237  0.56772286     0.08130
H572        H  0.12242522  0.34705774  0.57841178     0.09330
Cu573      Cu  0.04039839  0.33385979  0.60834255     0.44170
Cu574      Cu  0.09672818  0.31478179  0.61960033     0.41990
Cu575      Cu  0.04570152  0.28636384  0.64754131     0.43880
N576        N  0.01254895  0.31659176  0.62188482    -0.34290
N577        N  0.01385224  0.29896302  0.63620508    -0.28540
C578        C  0.99219061  0.29162694  0.64080329    -0.04640
C579        C  0.97677374  0.30537932  0.62861148     0.07570
C580        C  0.99035888  0.32092156  0.61688159     0.01370
H581        H  0.98802226  0.27729764  0.65192972     0.09020
H582        H  0.98462276  0.33439053  0.60533204     0.08100
N583        N  0.08035852  0.27886147  0.65441306    -0.35740
N584        N  0.09820198  0.28910767  0.64447972    -0.27920
C585        C  0.11786547  0.27988218  0.65268452    -0.03160
C586        C  0.11228603  0.26282929  0.66823244     0.05450
C587        C  0.08839328  0.26281731  0.66919355     0.03550
H588        H  0.13500320  0.28535455  0.64772239     0.08650
H589        H  0.07763298  0.25168083  0.67954094     0.07480
N590        N  0.09008414  0.59199602  0.59261828    -0.26900
N591        N  0.06867999  0.58743199  0.58610117    -0.34760
C592        C  0.06882682  0.57063568  0.57030410     0.01440
C593        C  0.09142301  0.56398893  0.56676209     0.07460
C594        C  0.10460027  0.57809182  0.58093573    -0.05640
H595        H  0.05353577  0.56378669  0.56200018     0.08130
H596        H  0.12320598  0.57792618  0.58293147     0.09330
Cu597      Cu  0.04009566  0.60347447  0.59956609     0.44170
Cu598      Cu  0.09673085  0.61663408  0.61787542     0.41990
Cu599      Cu  0.04486307  0.64613309  0.64338013     0.43880
N600        N  0.01196689  0.61886531  0.61465120    -0.34290
N601        N  0.01308784  0.63468089  0.63092495    -0.28540
C602        C  0.99134616  0.64066974  0.63689762    -0.04640
C603        C  0.97605201  0.62787187  0.62360369     0.07570
C604        C  0.98980715  0.61430619  0.60978785     0.01370
H605        H  0.98703516  0.65327966  0.64988106     0.09020
H606        H  0.98420409  0.60190345  0.59706661     0.08100
N607        N  0.07921761  0.65239138  0.65234152    -0.35740
N608        N  0.09743371  0.64171209  0.64358924    -0.27920
C609        C  0.11666885  0.65008952  0.65359846    -0.03160
C610        C  0.11036368  0.66655692  0.66955614     0.05450
C611        C  0.08653556  0.66790338  0.66795989     0.03550
H612        H  0.13407286  0.64483355  0.64930351     0.08650
H613        H  0.07532314  0.67964754  0.67707576     0.07480
O614        O  0.80348179  0.48853485  0.43962234    -0.72560
O615        O  0.79995385  0.43846578  0.48802797    -0.73540
O616        O  0.79938839  0.48781525  0.48901748    -0.62160
O617        O  0.80424927  0.43944654  0.43892354    -0.70570
O618        O  0.84219444  0.44069321  0.44327235    -0.70120
O619        O  0.83768234  0.48766874  0.49230539    -0.61370
O620        O  0.83823731  0.43931446  0.49127072    -0.73880
O621        O  0.84155254  0.48880578  0.44401692    -0.72660
Cu622      Cu  0.80029882  0.46360330  0.46382557     1.04560
Cu623      Cu  0.84111391  0.46417898  0.46785010     1.04330
C624        C  0.82335228  0.49632353  0.43399282     0.93640
C625        C  0.81874147  0.43077675  0.49683105     0.92780
C626        C  0.81797321  0.49507474  0.49860087     0.84930
C627        C  0.82442563  0.43246553  0.43320988     0.91200
N628        N  0.83849447  0.33565396  0.33634608    -0.26900
N629        N  0.85847274  0.34633767  0.33427461    -0.34760
C630        C  0.85896575  0.36448273  0.34835820     0.01440
C631        C  0.83836227  0.36541039  0.36036573     0.07460
C632        C  0.82569251  0.34671409  0.35228718    -0.05640
H633        H  0.87374924  0.37571103  0.35024619     0.08130
H634        H  0.80888194  0.34107041  0.35809887     0.09330
Cu635      Cu  0.88597434  0.33404897  0.31575427     0.44170
Cu636      Cu  0.83152617  0.30667534  0.31662625     0.41990
Cu637      Cu  0.88214306  0.28310201  0.28342406     0.43880
N638        N  0.91461586  0.31710304  0.30369720    -0.34290
N639        N  0.91375578  0.29778293  0.29183744    -0.28540
C640        C  0.93554453  0.29044176  0.28801043    -0.04640
C641        C  0.95061480  0.30600204  0.29817873     0.07570
C642        C  0.93669761  0.32260447  0.30791845     0.01370
H643        H  0.94002036  0.27477424  0.27904459     0.09020
H644        H  0.94212418  0.33739061  0.31784544     0.08100
N645        N  0.84768624  0.27407800  0.27868391    -0.35740
N646        N  0.82996431  0.28199372  0.29073963    -0.27920
C647        C  0.81036609  0.27278321  0.28234555    -0.03160
C648        C  0.81597103  0.25824230  0.26442438     0.05450
C649        C  0.83969633  0.25977316  0.26229172     0.03550
H650        H  0.79319961  0.27681342  0.28848710     0.08650
H651        H  0.85035429  0.25163187  0.24937351     0.07480
N652        N  0.84024369  0.59024389  0.33539977    -0.26900
N653        N  0.86109306  0.59031989  0.34470740    -0.34760
C654        C  0.86201397  0.57486210  0.36179605     0.01440
C655        C  0.84077412  0.56408976  0.36325027     0.07460
C656        C  0.82716038  0.57454842  0.34646772    -0.05640
H657        H  0.87729782  0.57131961  0.37201718     0.08130
H658        H  0.80939800  0.57054194  0.34215854     0.09330
Cu659      Cu  0.88820729  0.60925454  0.33207443     0.44170
Cu660      Cu  0.83258275  0.61166897  0.30769861     0.41990
Cu661      Cu  0.88157000  0.64754034  0.28467200     0.43880
N662        N  0.91572337  0.62352151  0.31495208    -0.34290
N663        N  0.91395912  0.63777809  0.29730499    -0.28540
C664        C  0.93542511  0.64232169  0.28937429    -0.04640
C665        C  0.95116496  0.62998057  0.30265314     0.07570
C666        C  0.93798891  0.61836651  0.31862631     0.01370
H667        H  0.93918718  0.65292861  0.27453244     0.09020
H668        H  0.94403908  0.60647606  0.33167289     0.08100
N669        N  0.84662403  0.65144838  0.27624382    -0.35740
N670        N  0.82966469  0.63807981  0.28364074    -0.27920
C671        C  0.80955185  0.64564825  0.27479989    -0.03160
C672        C  0.81372336  0.66513162  0.26170359     0.05450
C673        C  0.83751998  0.66804392  0.26278553     0.03550
H674        H  0.79306790  0.63754871  0.27803097     0.08650
H675        H  0.84750027  0.68161004  0.25485389     0.07480
N676        N  0.83716315  0.33423119  0.59101129    -0.26900
N677        N  0.85810161  0.34228585  0.58705610    -0.34760
C678        C  0.85670166  0.35974333  0.57197450     0.01440
C679        C  0.83371464  0.36298170  0.56634134     0.07460
C680        C  0.82173816  0.34634376  0.57846312    -0.05640
H681        H  0.87136604  0.36911299  0.56527196     0.08130
H682        H  0.80332124  0.34312939  0.57800451     0.09330
Cu683      Cu  0.88739137  0.32843253  0.60198347     0.44170
Cu684      Cu  0.83184401  0.30731025  0.61369073     0.41990
Cu685      Cu  0.88289038  0.28319872  0.64461464     0.43880
N686        N  0.91542582  0.31285105  0.61759937    -0.34290
N687        N  0.91435613  0.29625422  0.63313779    -0.28540
C688        C  0.93609725  0.29055881  0.63956936    -0.04640
C689        C  0.95135241  0.30437514  0.62744647     0.07570
C690        C  0.93758642  0.31818786  0.61373587     0.01370
H691        H  0.94042497  0.27759426  0.65225584     0.09020
H692        H  0.94318717  0.33135935  0.60183897     0.08100
N693        N  0.84852132  0.27511774  0.65169936    -0.35740
N694        N  0.83059068  0.28339099  0.64009934    -0.27920
C695        C  0.81104175  0.27511782  0.64926565    -0.03160
C696        C  0.81669284  0.26134272  0.66790244     0.05450
C697        C  0.84066623  0.26145580  0.66871629     0.03550
H698        H  0.79391493  0.27911568  0.64285987     0.08650
H699        H  0.85160466  0.25267611  0.68107692     0.07480
N700        N  0.83774592  0.58948125  0.59388547    -0.26900
N701        N  0.85825386  0.58708247  0.58432696    -0.34760
C702        C  0.85651290  0.57266456  0.56634090     0.01440
C703        C  0.83370934  0.56585026  0.56445890     0.07460
C704        C  0.82225710  0.57660354  0.58231269    -0.05640
H705        H  0.87085021  0.56710259  0.55580069     0.08130
H706        H  0.80417224  0.57500302  0.58670504     0.09330
Cu707      Cu  0.88723089  0.60310531  0.59749609     0.44170
Cu708      Cu  0.83306066  0.61079743  0.62184547     0.41990
Cu709      Cu  0.88180986  0.64670965  0.64248639     0.43880
N710        N  0.91475729  0.61897403  0.61364942    -0.34290
N711        N  0.91345222  0.63479759  0.62995486    -0.28540
C712        C  0.93515056  0.64070677  0.63635023    -0.04640
C713        C  0.95058558  0.62790717  0.62334889     0.07570
C714        C  0.93698238  0.61439853  0.60925359     0.01370
H715        H  0.93934056  0.65326249  0.64945852     0.09020
H716        H  0.94273728  0.60199610  0.59664200     0.08100
N717        N  0.84716514  0.65153737  0.65145324    -0.35740
N718        N  0.83040472  0.63749315  0.64504683    -0.27920
C719        C  0.81039871  0.64459536  0.65409766    -0.03160
C720        C  0.81413765  0.66473257  0.66637552     0.05450
C721        C  0.83791957  0.66836310  0.66444292     0.03550
H722        H  0.79452609  0.63524927  0.65162967     0.08650
H723        H  0.84790322  0.68230040  0.67171288     0.07480
C724        C  0.20975306  0.21277638  0.18175129     0.03520
C725        C  0.22039834  0.19376618  0.19242219    -0.12630
C726        C  0.21086422  0.18382967  0.21224998     0.01020
C727        C  0.19022992  0.19257087  0.22125797    -0.11160
C728        C  0.17981467  0.21201157  0.21139340     0.03510
C729        C  0.18916671  0.22154084  0.19119237    -0.10580
H730        H  0.23673699  0.18734592  0.18598402     0.09100
H731        H  0.18332199  0.18534827  0.23702459     0.06630
H732        H  0.18080594  0.23628866  0.18339737     0.06480
C733        C  0.80833915  0.40576052  0.40310029    -0.11880
C734        C  0.82760855  0.41473374  0.41498300     0.05130
C735        C  0.84987308  0.40643689  0.40923705    -0.07170
C736        C  0.85233068  0.38980078  0.39222155    -0.07910
C737        C  0.83337628  0.38163143  0.37950837    -0.02460
C738        C  0.81096296  0.38964009  0.38514247     0.04350
N739        N  0.79091884  0.38267239  0.37225358     0.66860
H740        H  0.79117052  0.41195682  0.40716786     0.15760
H741        H  0.86960200  0.38358260  0.38868902     0.15470
N742        N  0.87047333  0.41508074  0.41990648     0.74560
O743        O  0.77205291  0.37908597  0.38251340    -0.38890
O744        O  0.79099253  0.38371978  0.35051921    -0.38830
O745        O  0.88319201  0.40167720  0.43146608    -0.39530
O746        O  0.87830891  0.43438810  0.41379871    -0.39600
C747        C  0.81260957  0.41702111  0.53655086    -0.11880
C748        C  0.81841878  0.41190868  0.51368691     0.05130
C749        C  0.82616965  0.38955508  0.50796231    -0.07170
C750        C  0.82912965  0.37335234  0.52562415    -0.07910
C751        C  0.82489617  0.37894556  0.54868849    -0.02460
C752        C  0.81589044  0.40085159  0.55432261     0.04350
N753        N  0.81114419  0.40738707  0.57781467     0.66860
H754        H  0.80632517  0.43406655  0.54066844     0.15760
H755        H  0.83610524  0.35655512  0.52151169     0.15470
N756        N  0.83136762  0.38293365  0.48461438     0.74560
O757        O  0.81082889  0.42833877  0.58347052    -0.38890
O758        O  0.80544401  0.39254618  0.59261039    -0.38830
O759        O  0.84124531  0.39666731  0.47101688    -0.39530
O760        O  0.82831475  0.36240254  0.47825646    -0.39600
C761        C  0.84692188  0.51272830  0.40278365    -0.11880
C762        C  0.82610431  0.51336474  0.41512662     0.05130
C763        C  0.80890246  0.52951546  0.40859070    -0.07170
C764        C  0.81347835  0.54505560  0.39051223    -0.07910
C765        C  0.83484086  0.54499744  0.37908170    -0.02460
C766        C  0.85134589  0.52794510  0.38469543     0.04350
N767        N  0.87234009  0.52529535  0.37175796     0.66860
H768        H  0.85978263  0.49977121  0.40685166     0.15760
H769        H  0.80080545  0.55813985  0.38628270     0.15470
N770        N  0.78738361  0.53133249  0.42072733     0.74560
O771        O  0.89072718  0.51898260  0.38173732    -0.38890
O772        O  0.87190540  0.52639783  0.35002230    -0.38830
O773        O  0.78723497  0.53215625  0.44247065    -0.39530
O774        O  0.76899494  0.53578044  0.40978496    -0.39600
C775        C  0.81399268  0.53553566  0.51022067    -0.11880
C776        C  0.81731769  0.51257395  0.51680321     0.05130
C777        C  0.82311848  0.50728664  0.53993974    -0.07170
C778        C  0.82641507  0.52531647  0.55560877    -0.07910
C779        C  0.82468091  0.54828422  0.54863954    -0.02460
C780        C  0.81770993  0.55364186  0.52585542     0.04350
N781        N  0.81518909  0.57709330  0.51810817     0.66860
H782        H  0.80949603  0.53935417  0.49246752     0.15760
H783        H  0.83188409  0.52144033  0.57308652     0.15470
N784        N  0.82624301  0.48399948  0.54783224     0.74560
O785        O  0.81596572  0.58180748  0.49687220    -0.38890
O786        O  0.81036444  0.59294697  0.53213231    -0.38830
O787        O  0.83662830  0.46941201  0.53557344    -0.39530
O788        O  0.82124253  0.47873999  0.56833315    -0.39600
C789        C  0.14704263  0.25760900  0.24478238    -0.11880
C790        C  0.12702032  0.24572082  0.25122329     0.05130
C791        C  0.12394815  0.22287951  0.24365008    -0.07170
C792        C  0.14099848  0.21235077  0.23011026    -0.07910
C793        C  0.16130272  0.22414379  0.22416118    -0.02460
C794        C  0.16441953  0.24699908  0.23189014     0.04350
N795        N  0.18583245  0.25900238  0.22860151     0.66860
H796        H  0.14969339  0.27507050  0.25069161     0.15760
H797        H  0.13867213  0.19466525  0.22473019     0.15470
N798        N  0.10458116  0.20958431  0.25101683     0.74560
O799        O  0.18574646  0.28045541  0.22527564    -0.38890
O800        O  0.20469055  0.24917187  0.23347931    -0.38830
O801        O  0.08756484  0.20686014  0.23761679    -0.39530
O802        O  0.10639304  0.19715430  0.26877117    -0.39600
C803        C  0.11556588  0.39437001  0.41721728    -0.11880
C804        C  0.10891500  0.41704411  0.41224785     0.05130
C805        C  0.09829975  0.42217229  0.39087498    -0.07170
C806        C  0.09327983  0.40414629  0.37562617    -0.07910
C807        C  0.09879703  0.38127978  0.38101064    -0.02460
C808        C  0.11036623  0.37624604  0.40198392     0.04350
N809        N  0.11531387  0.35298130  0.40896078     0.66860
H810        H  0.12328017  0.39054590  0.43384781     0.15760
H811        H  0.08482143  0.40792304  0.35934953     0.15470
N812        N  0.09249210  0.44542601  0.38443784     0.74560
O813        O  0.13223267  0.34886833  0.42216603    -0.38890
O814        O  0.10113654  0.33703088  0.40471110    -0.38830
O815        O  0.10435623  0.46209968  0.39178387    -0.39530
O816        O  0.07706673  0.44923515  0.36944130    -0.39600
C817        C  0.11864694  0.39133751  0.54693754    -0.11880
C818        C  0.09801891  0.37861389  0.54589990     0.05130
C819        C  0.08351435  0.38090361  0.52636843    -0.07170
C820        C  0.08874439  0.39738799  0.50967194    -0.07910
C821        C  0.10849179  0.41134507  0.51133919    -0.02460
C822        C  0.12426574  0.40745935  0.52968401     0.04350
N823        N  0.14541259  0.42017983  0.53167060     0.66860
H824        H  0.13010889  0.38925836  0.56161672     0.15760
H825        H  0.07706233  0.39940179  0.49514604     0.15470
N826        N  0.06357955  0.36650465  0.52301484     0.74560
O827        O  0.15146436  0.42821483  0.55098070    -0.38890
O828        O  0.16011783  0.41918800  0.51569346    -0.38830
O829        O  0.04546366  0.37460098  0.51387497    -0.39530
O830        O  0.06494899  0.34512841  0.52655035    -0.39600
C831        C  0.08481025  0.52934858  0.41652236    -0.11880
C832        C  0.10586462  0.51725670  0.41647999     0.05130
C833        C  0.12270518  0.52315633  0.39980033    -0.07170
C834        C  0.11725372  0.53968320  0.38280003    -0.07910
C835        C  0.09543537  0.55036311  0.38202190    -0.02460
C836        C  0.07954523  0.54594100  0.39991339     0.04350
N837        N  0.05825952  0.55853234  0.40195710     0.66860
H838        H  0.07218785  0.52603957  0.42986951     0.15760
H839        H  0.12968694  0.54321466  0.36934134     0.15470
N840        N  0.14488353  0.51210916  0.39908269     0.74560
O841        O  0.04011667  0.54849024  0.40859949    -0.38890
O842        O  0.05821083  0.58015204  0.40004298    -0.38830
O843        O  0.14622460  0.49048934  0.39795182    -0.39530
O844        O  0.16279062  0.52394460  0.39544040    -0.39600
C845        C  0.11247051  0.55169963  0.53158997    -0.11880
C846        C  0.09916275  0.54578169  0.55084836     0.05130
C847        C  0.09187580  0.52283456  0.55366106    -0.07170
C848        C  0.09698817  0.50657319  0.53669445    -0.07910
C849        C  0.10921935  0.51263214  0.51679010    -0.02460
C850        C  0.11763210  0.53540871  0.51439433     0.04350
N851        N  0.12992892  0.54275073  0.49417221     0.66860
H852        H  0.11815028  0.56932793  0.52953293     0.15760
H853        H  0.09061108  0.48916385  0.53869529     0.15470
N854        N  0.07940391  0.51567065  0.57369176     0.74560
O855        O  0.12705623  0.56284798  0.48642885    -0.38890
O856        O  0.14594009  0.53056148  0.48595333    -0.38830
O857        O  0.05844289  0.52121310  0.57593586    -0.39530
O858        O  0.08769859  0.50005197  0.58637937    -0.39600
C859        C  0.75780107  0.69533770  0.24406642    -0.11880
C860        C  0.76469369  0.70700440  0.22415030     0.05130
C861        C  0.78793365  0.70557524  0.21680055    -0.07170
C862        C  0.80351584  0.69185968  0.22951314    -0.07910
C863        C  0.79659866  0.67994977  0.24946380    -0.02460
C864        C  0.77342248  0.68216141  0.25697676     0.04350
N865        N  0.76553233  0.67201975  0.27806134     0.66860
H866        H  0.74001939  0.69668979  0.24976349     0.15760
H867        H  0.82121789  0.69040685  0.22370965     0.15470
N868        N  0.79604883  0.71795109  0.19684643     0.74560
O869        O  0.77581334  0.67645664  0.29677235    -0.38890
O870        O  0.74631705  0.66174597  0.27858888    -0.38830
O871        O  0.78655382  0.73651452  0.19064456    -0.39530
O872        O  0.81413090  0.71150442  0.18657658    -0.39600
C873        C  0.67032421  0.78481998  0.23911970    -0.11880
C874        C  0.68337520  0.80231624  0.24939109     0.05130
C875        C  0.70742373  0.80347842  0.24508397    -0.07170
C876        C  0.71770315  0.78668972  0.23094964    -0.07910
C877        C  0.70471264  0.76850631  0.22151110    -0.02460
C878        C  0.68062179  0.76801887  0.22543157     0.04350
N879        N  0.66644055  0.74968472  0.21721949     0.66860
H880        H  0.65186541  0.78384335  0.24214543     0.15760
H881        H  0.73620362  0.78722122  0.22813667     0.15470
N882        N  0.72188088  0.82044673  0.25596018     0.74560
O883        O  0.66199102  0.73322547  0.23065499    -0.38890
O884        O  0.65335425  0.75322751  0.20011246    -0.38830
O885        O  0.71902358  0.82551492  0.27691009    -0.39530
O886        O  0.73956458  0.82790987  0.24570081    -0.39600
C887        C  0.39755296  0.80900533  0.41142735    -0.11880
C888        C  0.41732944  0.82297226  0.41193650     0.05130
C889        C  0.41984836  0.84061656  0.39538170    -0.07170
C890        C  0.40170753  0.84510246  0.38002992    -0.07910
C891        C  0.38133103  0.83207748  0.38026311    -0.02460
C892        C  0.37932186  0.81344885  0.39586917     0.04350
N893        N  0.35853352  0.79997722  0.39735246     0.66860
H894        H  0.39560072  0.79559629  0.42425218     0.15760
H895        H  0.40362353  0.85880969  0.36751890     0.15470
N896        N  0.44080493  0.85385058  0.39368377     0.74560
O897        O  0.35965731  0.77903132  0.40296889    -0.38890
O898        O  0.33896600  0.80955828  0.39628484    -0.38830
O899        O  0.46023204  0.84419978  0.39606808    -0.39530
O900        O  0.44009139  0.87449149  0.38696576    -0.39600
C901        C  0.42117457  0.82891056  0.53539514    -0.11880
C902        C  0.41481461  0.81710354  0.51528957     0.05130
C903        C  0.39181140  0.80916638  0.51273863    -0.07170
C904        C  0.37547386  0.81481945  0.52978671    -0.07910
C905        C  0.38160856  0.82800753  0.54912425    -0.02460
C906        C  0.40497064  0.83447889  0.55236134     0.04350
N907        N  0.41278366  0.84638040  0.57268393     0.66860
H908        H  0.43885176  0.83481921  0.53742547     0.15760
H909        H  0.35762757  0.80955871  0.52759997     0.15470
N910        N  0.38439829  0.79666295  0.49262112     0.74560
O911        O  0.43193733  0.84102898  0.58174179    -0.38890
O912        O  0.40270472  0.86436829  0.57943845    -0.38830
O913        O  0.39723424  0.78151103  0.48382761    -0.39530
O914        O  0.36386373  0.79858303  0.48538696    -0.39600
C915        C  0.51815472  0.80868663  0.39846479    -0.11880
C916        C  0.51694018  0.82407892  0.41709227     0.05130
C917        C  0.53225948  0.84301982  0.41782699    -0.07170
C918        C  0.54699069  0.84704079  0.39922334    -0.07910
C919        C  0.54739573  0.83245654  0.38000425    -0.02460
C920        C  0.53306613  0.81272776  0.37973362     0.04350
N921        N  0.53218464  0.79756447  0.36017696     0.66860
H922        H  0.50633765  0.79425779  0.39775664     0.15760
H923        H  0.55854636  0.86168395  0.39990842     0.15470
N924        N  0.53336752  0.85817617  0.43738785     0.74560
O925        O  0.52799126  0.77645888  0.36303235    -0.38890
O926        O  0.53235926  0.80558971  0.33995319    -0.38830
O927        O  0.53352951  0.85007387  0.45758339    -0.39530
O928        O  0.53727937  0.87933636  0.43453092    -0.39600
C929        C  0.50609799  0.82930579  0.53719825    -0.11880
C930        C  0.51278267  0.81802614  0.51696449     0.05130
C931        C  0.53555263  0.80917712  0.51501553    -0.07170
C932        C  0.55129037  0.81312490  0.53319278    -0.07910
C933        C  0.54489170  0.82585857  0.55267989    -0.02460
C934        C  0.52173813  0.83307160  0.55525593     0.04350
N935        N  0.51388908  0.84417801  0.57599830     0.66860
H936        H  0.48846552  0.83542629  0.53880266     0.15760
H937        H  0.56914057  0.80777661  0.53137935     0.15470
N938        N  0.54353554  0.79761506  0.49452419     0.74560
O939        O  0.49661802  0.85746147  0.57542877    -0.38890
O940        O  0.52241845  0.83873280  0.59532104    -0.38830
O941        O  0.53493178  0.80209625  0.47500384    -0.39530
O942        O  0.56085802  0.78442255  0.49556732    -0.39600
C943        C  0.22398613  0.14335008  0.21589416    -0.11880
C944        C  0.22373885  0.16574214  0.22479280     0.05130
C945        C  0.23732915  0.17097141  0.24437967    -0.07170
C946        C  0.25029548  0.15351241  0.25490059    -0.07910
C947        C  0.25060711  0.13095385  0.24620953    -0.02460
C948        C  0.23754134  0.12597369  0.22608170     0.04350
N949        N  0.23891505  0.10403533  0.21486959     0.66860
H950        H  0.21422953  0.13961471  0.20034996     0.15760
H951        H  0.26000467  0.15772878  0.27030917     0.15470
N952        N  0.23901668  0.19396563  0.25333462     0.74560
O953        O  0.22102065  0.09523071  0.20601125    -0.38890
O954        O  0.25841379  0.09541973  0.21034363    -0.38830
O955        O  0.22105101  0.20561896  0.25719077    -0.39530
O956        O  0.25825800  0.20144080  0.26043627    -0.39600
C957        C  0.41414944  0.11650275  0.39648358    -0.11880
C958        C  0.41150401  0.10578236  0.41799803     0.05130
C959        C  0.39217668  0.09149855  0.42189868    -0.07170
C960        C  0.37703367  0.08681843  0.40358750    -0.07910
C961        C  0.38034223  0.09639082  0.38162977    -0.02460
C962        C  0.39895067  0.11178433  0.37807649     0.04350
N963        N  0.40379141  0.12134718  0.35574165     0.66860
H964        H  0.42910751  0.12730406  0.39351166     0.15760
H965        H  0.36233504  0.07567172  0.40653584     0.15470
N966        N  0.38747080  0.08198809  0.44433424     0.74560
O967        O  0.41252493  0.14116549  0.35412439    -0.38890
O968        O  0.40274653  0.10887289  0.33797422    -0.38830
O969        O  0.39181198  0.09345547  0.46230596    -0.39530
O970        O  0.37639417  0.06338768  0.44619765    -0.39600
C971        C  0.39534936  0.12156305  0.51569751    -0.11880
C972        C  0.41669916  0.11033164  0.51839235     0.05130
C973        C  0.42001122  0.09521150  0.53725892    -0.07170
C974        C  0.40146534  0.09050843  0.55188195    -0.07910
C975        C  0.37970251  0.10047708  0.54840062    -0.02460
C976        C  0.37655012  0.11656450  0.53029717     0.04350
N977        N  0.35427777  0.12654815  0.52531607     0.66860
H978        H  0.39273039  0.13274591  0.50096643     0.15760
H979        H  0.40395480  0.07866615  0.56611801     0.15470
N980        N  0.44194599  0.08426055  0.54165424     0.74560
O981        O  0.35297144  0.14578268  0.51529280    -0.38890
O982        O  0.33599177  0.11507492  0.52817491    -0.38830
O983        O  0.46057874  0.09467127  0.53745649    -0.39530
O984        O  0.44282462  0.06515565  0.55197385    -0.39600
C985        C  0.54180185  0.07925047  0.39546674    -0.11880
C986        C  0.54612511  0.09656948  0.37925082     0.05130
C987        C  0.53519652  0.11820092  0.38193960    -0.07170
C988        C  0.51964961  0.12149050  0.40033000    -0.07910
C989        C  0.51444476  0.10358315  0.41577400    -0.02460
C990        C  0.52639579  0.08239962  0.41360682     0.04350
N991        N  0.52340854  0.06382527  0.42967963     0.66860
H992        H  0.55081471  0.06296797  0.39430181     0.15760
H993        H  0.51064853  0.13775450  0.40180556     0.15470
N994        N  0.53849384  0.13648081  0.36562873     0.74560
O995        O  0.52152704  0.04345981  0.42240911    -0.38890
O996        O  0.52631914  0.06719145  0.45098013    -0.38830
O997        O  0.53728213  0.13249238  0.34427350    -0.39530
O998        O  0.53916162  0.15706719  0.37246709    -0.39600
C999        C  0.55540648  0.10062151  0.52532953    -0.11880
C1000       C  0.54933601  0.10347596  0.54850838     0.05130
C1001       C  0.52720875  0.11213025  0.55419360    -0.07170
C1002       C  0.51137256  0.11662963  0.53631730    -0.07910
C1003       C  0.51694174  0.11221500  0.51327706    -0.02460
C1004       C  0.53956068  0.10517538  0.50751843     0.04350
N1005       N  0.54665682  0.10263335  0.48388032     0.66860
H1006       H  0.57252489  0.09430862  0.52118208     0.15760
H1007       H  0.49420020  0.12270635  0.54046894     0.15470
N1008       N  0.51991705  0.11491278  0.57775879     0.74560
O1009       O  0.56369773  0.09003315  0.47887592    -0.38890
O1010       O  0.53787600  0.11511937  0.46832948    -0.38830
O1011       O  0.53408102  0.12093752  0.59320623    -0.39530
O1012       O  0.49879228  0.11318750  0.58289707    -0.39600
C1013       C  0.39459893  0.41621354  0.81375041    -0.11880
C1014       C  0.41709089  0.41155992  0.82162062     0.05130
C1015       C  0.42219368  0.38972823  0.83126023    -0.07170
C1016       C  0.40412720  0.37388669  0.83411924    -0.07910
C1017       C  0.38133552  0.37918651  0.82776613    -0.02460
C1018       C  0.37644950  0.40049136  0.81700944     0.04350
N1019       N  0.35325735  0.40710669  0.81062069     0.66860
H1020       H  0.39099281  0.43260475  0.80564764     0.15760
H1021       H  0.40768293  0.35750725  0.84233044     0.15470
N1022       N  0.44533374  0.38293523  0.83775050     0.74560
O1023       O  0.34765469  0.42808403  0.81003870    -0.38890
O1024       O  0.33880335  0.39235504  0.80378379    -0.38830
O1025       O  0.45965782  0.39727145  0.84564717    -0.39530
O1026       O  0.45101869  0.36198285  0.83720116    -0.39600
C1027       C  0.51071488  0.39307780  0.81554462    -0.11880
C1028       C  0.51691463  0.41593975  0.82006032     0.05130
C1029       C  0.53986212  0.42120632  0.82696168    -0.07170
C1030       C  0.55562733  0.40307490  0.82994883    -0.07910
C1031       C  0.54906253  0.38016128  0.82663377    -0.02460
C1032       C  0.52644887  0.37494837  0.81891207     0.04350
N1033       N  0.51888903  0.35157833  0.81535068     0.66860
H1034       H  0.49316376  0.38930635  0.81012863     0.15760
H1035       H  0.57296646  0.40671658  0.83609967     0.15470
N1036       N  0.54761431  0.44444432  0.83116037     0.74560
O1037       O  0.49763071  0.34668401  0.81590697    -0.38890
O1038       O  0.53309913  0.33601707  0.81000353    -0.38830
O1039       O  0.53370997  0.46004239  0.83708872    -0.39530
O1040       O  0.56891534  0.44914597  0.83046476    -0.39600
C1041       C  0.42194471  0.53591613  0.82430396    -0.11880
C1042       C  0.41430167  0.51329369  0.82114557     0.05130
C1043       C  0.39039057  0.50849406  0.82054997    -0.07170
C1044       C  0.37461286  0.52659160  0.82338888    -0.07910
C1045       C  0.38228084  0.54902057  0.82774892    -0.02460
C1046       C  0.40621387  0.55398003  0.82767407     0.04350
N1047       N  0.41477770  0.57699034  0.83125597     0.66860
H1048       H  0.44035967  0.53938236  0.82457597     0.15760
H1049       H  0.35626242  0.52286863  0.82400916     0.15470
N1050       N  0.38190117  0.48535226  0.81874976     0.74560
O1051       O  0.43520619  0.58017773  0.83832663    -0.38890
O1052       O  0.40282061  0.59422061  0.82541561    -0.38830
O1053       O  0.39138972  0.46943103  0.83016238    -0.39530
O1054       O  0.36294397  0.48140154  0.80863705    -0.39600
C1055       C  0.50587362  0.53618491  0.83123470    -0.11880
C1056       C  0.51238502  0.51653456  0.81890367     0.05130
C1057       C  0.53516433  0.51486348  0.81013535    -0.07170
C1058       C  0.55116729  0.53226640  0.81562456    -0.07910
C1059       C  0.54496448  0.55116892  0.82926214    -0.02460
C1060       C  0.52170867  0.55367917  0.83642677     0.04350
N1061       N  0.51348525  0.57383775  0.84831035     0.66860
H1062       H  0.48832421  0.53753951  0.83760732     0.15760
H1063       H  0.56888830  0.53073157  0.80982242     0.15470
N1064       N  0.54281335  0.49534766  0.79690519     0.74560
O1065       O  0.49307176  0.58081592  0.84491407    -0.38890
O1066       O  0.52547574  0.58349872  0.86369798    -0.38830
O1067       O  0.52954500  0.48593215  0.78242096    -0.39530
O1068       O  0.56383435  0.48947214  0.79731656    -0.39600
C1069       C  0.67191662  0.68503420  0.14900107    -0.11880
C1070       C  0.68311646  0.67908160  0.12847673     0.05130
C1071       C  0.70594075  0.68689200  0.12477723    -0.07170
C1072       C  0.71686050  0.70062154  0.14150000    -0.07910
C1073       C  0.70567918  0.70611053  0.16221215    -0.02460
C1074       C  0.68308129  0.69777902  0.16614345     0.04350
N1075       N  0.67184438  0.70060256  0.18799248     0.66860
H1076       H  0.65448451  0.67907482  0.15214882     0.15760
H1077       H  0.73443285  0.70640134  0.13866486     0.15470
N1078       N  0.71879679  0.67978355  0.10501649     0.74560
O1079       O  0.65015067  0.70290622  0.18881778    -0.38890
O1080       O  0.68282239  0.69649777  0.20639940    -0.38830
O1081       O  0.72720800  0.69463631  0.09159248    -0.39530
O1082       O  0.72454034  0.65896532  0.10284202    -0.39600
C1083       C  0.23863613  0.25828165  0.14457101    -0.11880
C1084       C  0.24873170  0.24495544  0.12724017     0.05130
C1085       C  0.24448491  0.22099641  0.12669784    -0.07170
C1086       C  0.23063633  0.21109243  0.14400328    -0.07910
C1087       C  0.22143753  0.22439595  0.16204694    -0.02460
C1088       C  0.22529137  0.24836490  0.16188176     0.04350
N1089       N  0.21749519  0.26281310  0.18012756     0.66860
H1090       H  0.24168020  0.27666194  0.14509917     0.15760
H1091       H  0.22782622  0.19268226  0.14395854     0.15470
N1092       N  0.25507915  0.20630850  0.10981396     0.74560
O1093       O  0.23079690  0.26633849  0.19704533    -0.38890
O1094       O  0.20118681  0.27673453  0.17625005    -0.38830
O1095       O  0.27579620  0.20949613  0.10384546    -0.39530
O1096       O  0.24486698  0.18828853  0.10321029    -0.39600
C1097       C  0.39717331  0.40990312  0.12406678    -0.11880
C1098       C  0.41620420  0.41091759  0.10914724     0.05130
C1099       C  0.41775902  0.39498074  0.09083831    -0.07170
C1100       C  0.39936717  0.38007150  0.08650152    -0.07910
C1101       C  0.37954295  0.38004439  0.10027377    -0.02460
C1102       C  0.37863695  0.39467288  0.11979561     0.04350
N1103       N  0.35866890  0.39551091  0.13445846     0.66860
H1104       H  0.39594061  0.42213867  0.13807317     0.15760
H1105       H  0.40061715  0.36820108  0.07217159     0.15470
N1106       N  0.43799450  0.39362625  0.07658205     0.74560
O1107       O  0.36100611  0.40004646  0.15561974    -0.38890
O1108       O  0.33856903  0.39470268  0.12593018    -0.38830
O1109       O  0.45785793  0.39461869  0.08561284    -0.39530
O1110       O  0.43615810  0.38864047  0.05547395    -0.39600
C1111       C  0.51350009  0.40177801  0.08223509    -0.11880
C1112       C  0.51338869  0.41342703  0.10343440     0.05130
C1113       C  0.52993163  0.40711164  0.12041459    -0.07170
C1114       C  0.54710581  0.39082585  0.11498896    -0.07910
C1115       C  0.54754730  0.37994635  0.09338523    -0.02460
C1116       C  0.52971313  0.38468982  0.07732587     0.04350
N1117       N  0.52718251  0.37175427  0.05636326     0.66860
H1118       H  0.50041065  0.40558213  0.06937512     0.15760
H1119       H  0.56039197  0.38691414  0.12762383     0.15470
N1120       N  0.52997066  0.41721227  0.14293759     0.74560
O1121       O  0.52857643  0.35009724  0.05679092    -0.38890
O1122       O  0.52035531  0.38155263  0.03813099    -0.38830
O1123       O  0.51327510  0.41340973  0.15634963    -0.39530
O1124       O  0.54852991  0.42524406  0.15113833    -0.39600
C1125       C  0.42050972  0.53617765  0.10882842    -0.11880
C1126       C  0.41310275  0.51359631  0.11277251     0.05130
C1127       C  0.38922338  0.50849375  0.11276416    -0.07170
C1128       C  0.37341137  0.52610745  0.10743964    -0.07910
C1129       C  0.38089094  0.54843757  0.10222101    -0.02460
C1130       C  0.40477199  0.55383170  0.10345184     0.04350
N1131       N  0.41355317  0.57662551  0.09883636     0.66860
H1132       H  0.43890730  0.53973292  0.10858647     0.15760
H1133       H  0.35509102  0.52226790  0.10664927     0.15470
N1134       N  0.38084506  0.48556195  0.11716205     0.74560
O1135       O  0.43321197  0.58246741  0.10635905    -0.38890
O1136       O  0.40257094  0.59060396  0.08624699    -0.38830
O1137       O  0.39213143  0.47191509  0.12986548    -0.39530
O1138       O  0.36115270  0.47947587  0.10994083    -0.39600
C1139       C  0.54439840  0.54007165  0.11664220    -0.11880
C1140       C  0.54687308  0.54865999  0.09410792     0.05130
C1141       C  0.53055369  0.54206747  0.07715238    -0.07170
C1142       C  0.51379163  0.52571847  0.08245020    -0.07910
C1143       C  0.51180745  0.51611538  0.10460152    -0.02460
C1144       C  0.52675493  0.52427829  0.12223964     0.04350
N1145       N  0.52434056  0.51703060  0.14574393     0.66860
H1146       H  0.55636754  0.54552039  0.12996751     0.15760
H1147       H  0.50188956  0.52075168  0.06887423     0.15470
N1148       N  0.53009249  0.55228330  0.05462057     0.74560
O1149       O  0.54210774  0.51210901  0.15747123    -0.38890
O1150       O  0.50546514  0.52040421  0.15605171    -0.38830
O1151       O  0.52711254  0.53985394  0.03702389    -0.39530
O1152       O  0.52947948  0.57387440  0.05250669    -0.39600
C1153       C  0.78063614  0.21160685  0.23529603    -0.11880
C1154       C  0.76366469  0.22473384  0.22387328     0.05130
C1155       C  0.76486558  0.24904045  0.22510289    -0.07170
C1156       C  0.78300355  0.25934493  0.23743290    -0.07910
C1157       C  0.79953032  0.24613783  0.24924267    -0.02460
C1158       C  0.79830980  0.22189706  0.24827081     0.04350
N1159       N  0.81360836  0.20741350  0.26147869     0.66860
H1160       H  0.78003783  0.19301844  0.23430046     0.15760
H1161       H  0.78361158  0.27792342  0.23874658     0.15470
N1162       N  0.74722084  0.26352581  0.21533921     0.74560
O1163       O  0.80603197  0.18915150  0.27047357    -0.38890
O1164       O  0.83507406  0.21117860  0.26192943    -0.38830
O1165       O  0.72614351  0.25922028  0.21890082    -0.39530
O1166       O  0.75266522  0.28226776  0.20581094    -0.39600
C1167       C  0.67224072  0.24353205  0.14878243    -0.11880
C1168       C  0.68223426  0.24773140  0.12718509     0.05130
C1169       C  0.70436610  0.23834649  0.12237869    -0.07170
C1170       C  0.71550852  0.22467271  0.13912897    -0.07910
C1171       C  0.70530054  0.22066185  0.16062429    -0.02460
C1172       C  0.68356924  0.23040217  0.16545954     0.04350
N1173       N  0.67335818  0.22826203  0.18777429     0.66860
H1174       H  0.65539153  0.25049307  0.15291120     0.15760
H1175       H  0.73261975  0.21789968  0.13575728     0.15470
N1176       N  0.71645098  0.24369758  0.10148345     0.74560
O1177       O  0.67200311  0.24569997  0.20061791    -0.38890
O1178       O  0.66159060  0.21065677  0.19253357    -0.38830
O1179       O  0.71805802  0.26430476  0.09484315    -0.39530
O1180       O  0.72869614  0.22855694  0.09183877    -0.39600
C1181       C  0.68154668  0.15848933  0.22019050    -0.11880
C1182       C  0.70573603  0.16064241  0.22185738     0.05130
C1183       C  0.71813921  0.14469228  0.23575605    -0.07170
C1184       C  0.70591365  0.12835491  0.24870266    -0.07910
C1185       C  0.68177940  0.12698378  0.24753234    -0.02460
C1186       C  0.66946608  0.14151760  0.23234084     0.04350
N1187       N  0.64492320  0.13897976  0.22867808     0.66860
H1188       H  0.67179670  0.17029106  0.20955024     0.15760
H1189       H  0.71528736  0.11672648  0.25997595     0.15470
N1190       N  0.74298545  0.14460782  0.23680680     0.74560
O1191       O  0.63295881  0.15584356  0.22184167    -0.38890
O1192       O  0.63571886  0.11930941  0.22914262    -0.38830
O1193       O  0.75324782  0.13996924  0.25550051    -0.39530
O1194       O  0.75472278  0.14696100  0.21866151    -0.39600
C1195       C  0.21450060  0.69779689  0.78297118    -0.11880
C1196       C  0.22618462  0.70333490  0.76253000     0.05130
C1197       C  0.24936456  0.69618279  0.75971656    -0.07170
C1198       C  0.26025509  0.68393752  0.77755411    -0.07910
C1199       C  0.24847125  0.67798102  0.79783626    -0.02460
C1200       C  0.22519731  0.68492232  0.80052892     0.04350
N1201       N  0.21176524  0.67802709  0.82014338     0.66860
H1202       H  0.19662870  0.70301880  0.78496837     0.15760
H1203       H  0.27802843  0.67851386  0.77532423     0.15470
N1204       N  0.26177001  0.70025561  0.73864860     0.74560
O1205       O  0.19670948  0.69144946  0.82827916    -0.38890
O1206       O  0.21227498  0.65743438  0.82701358    -0.38830
O1207       O  0.28335093  0.70349839  0.73915640    -0.39530
O1208       O  0.25184306  0.69778994  0.71938249    -0.39600
C1209       C  0.21862709  0.77067956  0.68228230    -0.11880
C1210       C  0.22076084  0.76930924  0.70645190     0.05130
C1211       C  0.23453180  0.78596038  0.71798181    -0.07170
C1212       C  0.24693129  0.80217540  0.70494068    -0.07910
C1213       C  0.24531768  0.80272934  0.68083462    -0.02460
C1214       C  0.23014026  0.78751428  0.66941818     0.04350
N1215       N  0.22584247  0.78921083  0.64497220     0.66860
H1216       H  0.20813690  0.75829262  0.67312176     0.15760
H1217       H  0.25814388  0.81433785  0.71364353     0.15470
N1218       N  0.23595368  0.78691828  0.74271553     0.74560
O1219       O  0.21914645  0.77183699  0.63375618    -0.38890
O1220       O  0.22552400  0.80860481  0.63518171    -0.38830
O1221       O  0.25452777  0.79299454  0.75247113    -0.39530
O1222       O  0.21810018  0.78393266  0.75479572    -0.39600
C1223       C  0.14524061  0.69438529  0.71790235    -0.11880
C1224       C  0.16172269  0.70673875  0.70517265     0.05130
C1225       C  0.16027932  0.70646546  0.68077858    -0.07170
C1226       C  0.14234207  0.69437905  0.66995885    -0.07910
C1227       C  0.12629546  0.68158230  0.68264174    -0.02460
C1228       C  0.12777490  0.68145687  0.70703600     0.04350
N1229       N  0.11309197  0.66718539  0.72102496     0.66860
H1230       H  0.14621367  0.69446628  0.73655625     0.15760
H1231       H  0.14167281  0.69390535  0.65128406     0.15470
N1232       N  0.17780802  0.71669019  0.66663204     0.74560
O1233       O  0.12088121  0.65840764  0.73940308    -0.38890
O1234       O  0.09184714  0.66514185  0.71651581    -0.38830
O1235       O  0.19882391  0.71179019  0.67000242    -0.39530
O1236       O  0.17215696  0.72765593  0.64867873    -0.39600
C1237       C  0.25956013  0.23286528  0.78585849    -0.11880
C1238       C  0.24712081  0.24761033  0.80024935     0.05130
C1239       C  0.22280623  0.24886590  0.79807357    -0.07170
C1240       C  0.21166885  0.23502761  0.78152912    -0.07910
C1241       C  0.22417939  0.22102987  0.76611588    -0.02460
C1242       C  0.24860574  0.21990478  0.76868841     0.04350
N1243       N  0.26290090  0.20673010  0.75351032     0.66860
H1244       H  0.27823027  0.23202444  0.78745044     0.15760
H1245       H  0.19301140  0.23585279  0.78017025     0.15470
N1246       N  0.20932107  0.26492558  0.81133261     0.74560
O1247       O  0.26280730  0.21085498  0.73214757    -0.38890
O1248       O  0.27779531  0.19309819  0.76175868    -0.38830
O1249       O  0.21729068  0.28454262  0.81617878    -0.39530
O1250       O  0.18827668  0.26087075  0.81536316    -0.39600
C1251       C  0.12828291  0.24782067  0.70511086    -0.11880
C1252       C  0.12855194  0.24788606  0.68094706     0.05130
C1253       C  0.14421240  0.23351415  0.66927902    -0.07170
C1254       C  0.16014957  0.22048715  0.68189022    -0.07910
C1255       C  0.16081092  0.22105040  0.70613195    -0.02460
C1256       C  0.14399509  0.23435553  0.71791616     0.04350
N1257       N  0.14213655  0.23391482  0.74263888     0.66860
H1258       H  0.11566000  0.25826901  0.71404256     0.15760
H1259       H  0.17252498  0.21034908  0.67239085     0.15470
N1260       N  0.14354723  0.23105218  0.64470305     0.74560
O1261       O  0.13537827  0.25153036  0.75338406    -0.38890
O1262       O  0.14469490  0.21529048  0.75354974    -0.38830
O1263       O  0.15035921  0.24726432  0.63198666    -0.39530
O1264       O  0.14087734  0.21133046  0.63604476    -0.39600
C1265       C  0.24597399  0.14931303  0.67465582    -0.11880
C1266       C  0.24794192  0.12671751  0.68298306     0.05130
C1267       C  0.23640949  0.12085815  0.70372807    -0.07170
C1268       C  0.22249661  0.13737848  0.71477152    -0.07910
C1269       C  0.22060996  0.15982642  0.70616190    -0.02460
C1270       C  0.23299486  0.16594593  0.68613956     0.04350
N1271       N  0.23388063  0.18923469  0.67794073     0.66860
H1272       H  0.25456189  0.15435407  0.65891595     0.15760
H1273       H  0.21392083  0.13301331  0.73075688     0.15470
N1274       N  0.23987676  0.09902638  0.71474661     0.74560
O1275       O  0.25313469  0.19803276  0.67281134    -0.38890
O1276       O  0.21561639  0.19934643  0.67168939    -0.38830
O1277       O  0.26014848  0.09170766  0.71824345    -0.39530
O1278       O  0.22318960  0.08914467  0.72460347    -0.39600
C1279       C  0.68512706  0.23102850  0.75980810    -0.11880
C1280       C  0.70606577  0.22086713  0.76656756     0.05130
C1281       C  0.71342663  0.22249567  0.78990309    -0.07170
C1282       C  0.69985917  0.23542562  0.80533192    -0.07910
C1283       C  0.67915118  0.24607198  0.79834761    -0.02460
C1284       C  0.67131547  0.24302636  0.77542480     0.04350
N1285       N  0.64895400  0.25087492  0.76793627     0.66860
H1286       H  0.67919136  0.22912628  0.74215472     0.15760
H1287       H  0.70574740  0.23758028  0.82293596     0.15470
N1288       N  0.73383200  0.21088568  0.79858448     0.74560
O1289       O  0.64635014  0.25908422  0.74793551    -0.38890
O1290       O  0.63127317  0.24632376  0.77978168    -0.38830
O1291       O  0.74885062  0.20264931  0.78522445    -0.39530
O1292       O  0.73681932  0.20852402  0.82003636    -0.39600
C1293       C  0.76232324  0.24399433  0.69985167    -0.11880
C1294       C  0.76830337  0.22210095  0.70807562     0.05130
C1295       C  0.79117726  0.21383756  0.70489484    -0.07170
C1296       C  0.80680497  0.22742031  0.69222787    -0.07910
C1297       C  0.80044497  0.24897918  0.68327719    -0.02460
C1298       C  0.77820044  0.25777817  0.68813787     0.04350
N1299       N  0.77176934  0.28096350  0.68237641     0.66860
H1300       H  0.74510028  0.25062656  0.70300846     0.15760
H1301       H  0.82396177  0.22081988  0.68881243     0.15470
N1302       N  0.79928667  0.19248987  0.71480691     0.74560
O1303       O  0.75129097  0.28550131  0.67624964    -0.38890
O1304       O  0.78542699  0.29732558  0.68675962    -0.38830
O1305       O  0.78557839  0.17635881  0.71963719    -0.39530
O1306       O  0.82062807  0.18948236  0.71840476    -0.39600
C1307       C  0.69202376  0.14496868  0.66908127    -0.11880
C1308       C  0.68262421  0.12645861  0.68138653     0.05130
C1309       C  0.68539714  0.12567295  0.70555733    -0.07170
C1310       C  0.69769629  0.14321292  0.71675537    -0.07910
C1311       C  0.70688814  0.16193216  0.70448678    -0.02460
C1312       C  0.70360247  0.16294956  0.68028197     0.04350
N1313       N  0.71031976  0.18270903  0.66700224     0.66860
H1314       H  0.68931426  0.14601626  0.65061013     0.15760
H1315       H  0.69984568  0.14231470  0.73530092     0.15470
N1316       N  0.67434268  0.10838047  0.71920977     0.74560
O1317       O  0.71808047  0.18017758  0.64685448    -0.38890
O1318       O  0.70542195  0.20267865  0.67396043    -0.38830
O1319       O  0.68153370  0.08792413  0.71853513    -0.39530
O1320       O  0.66093355  0.11433108  0.73524797    -0.39600
C1321       C  0.22948678  0.76092493  0.24518448    -0.11880
C1322       C  0.22334844  0.76524572  0.22218479     0.05130
C1323       C  0.22929503  0.78656110  0.21201012    -0.07170
C1324       C  0.24185582  0.80268695  0.22510845    -0.07910
C1325       C  0.24813597  0.79824789  0.24810669    -0.02460
C1326       C  0.24136871  0.77724271  0.25839418     0.04350
N1327       N  0.24539136  0.77256975  0.28241031     0.66860
H1328       H  0.22454348  0.74477692  0.25309154     0.15760
H1329       H  0.24678967  0.81886612  0.21729814     0.15470
N1330       N  0.22235311  0.79235466  0.18883039     0.74560
O1331       O  0.24043306  0.78749941  0.29737982    -0.38890
O1332       O  0.25057887  0.75249248  0.28891426    -0.38830
O1333       O  0.20329633  0.78538530  0.18077359    -0.39530
O1334       O  0.23402316  0.80655179  0.17722855    -0.39600
C1335       C  0.23664567  0.71833044  0.14548522    -0.11880
C1336       C  0.22005436  0.70622281  0.15862212     0.05130
C1337       C  0.21688532  0.68247790  0.15348509    -0.07170
C1338       C  0.23123653  0.67153535  0.13754236    -0.07910
C1339       C  0.24882834  0.68335315  0.12619044    -0.02460
C1340       C  0.25157998  0.70715789  0.12998218     0.04350
N1341       N  0.27002377  0.72000324  0.11935932     0.66860
H1342       H  0.23869326  0.73664756  0.14781765     0.15760
H1343       H  0.22877476  0.65335841  0.13420519     0.15470
N1344       N  0.19939242  0.66880359  0.16403183     0.74560
O1345       O  0.26825266  0.74149393  0.11683859    -0.38890
O1346       O  0.28920599  0.71056381  0.11513332    -0.38830
O1347       O  0.18150065  0.66372587  0.15257097    -0.39530
O1348       O  0.20399335  0.65776103  0.18220566    -0.39600
C1349       C  0.16777157  0.69748427  0.24156952    -0.11880
C1350       C  0.16021270  0.70838661  0.22132922     0.05130
C1351       C  0.13641620  0.70774277  0.21533249    -0.07170
C1352       C  0.12129341  0.69491332  0.22941647    -0.07910
C1353       C  0.12901001  0.68366935  0.24955613    -0.02460
C1354       C  0.15250571  0.68587371  0.25607298     0.04350
N1355       N  0.16102511  0.67770635  0.27787263     0.66860
H1356       H  0.18582381  0.69870540  0.24657036     0.15760
H1357       H  0.10330556  0.69348922  0.22444053     0.15470
N1358       N  0.12703514  0.72028465  0.19586433     0.74560
O1359       O  0.18056716  0.66808193  0.27912517    -0.38890
O1360       O  0.15091528  0.68343803  0.29623851    -0.38830
O1361       O  0.13996907  0.72973759  0.18119579    -0.39530
O1362       O  0.10543030  0.72264273  0.19363317    -0.39600
C1363       C  0.75738195  0.68843937  0.69058825    -0.11880
C1364       C  0.76534838  0.70578702  0.70518234     0.05130
C1365       C  0.78928873  0.71044629  0.70662567    -0.07170
C1366       C  0.80466208  0.69686533  0.69365823    -0.07910
C1367       C  0.79679163  0.67916991  0.67896926    -0.02460
C1368       C  0.77255751  0.67553002  0.67715397     0.04350
N1369       N  0.76264421  0.65979064  0.66100485     0.66860
H1370       H  0.73893908  0.68538789  0.68903327     0.15760
H1371       H  0.82298055  0.70006619  0.69542111     0.15470
N1372       N  0.79833220  0.72872987  0.72084870     0.74560
O1373       O  0.74948658  0.64399533  0.66805895    -0.38890
O1374       O  0.76323104  0.66440797  0.63975039    -0.38830
O1375       O  0.78744988  0.73577585  0.73828380    -0.39530
O1376       O  0.81790984  0.73729925  0.71658549    -0.39600
C1377       C  0.68323083  0.76937958  0.70663653    -0.11880
C1378       C  0.70756381  0.76937845  0.70666906     0.05130
C1379       C  0.71937522  0.78708936  0.69472108    -0.07170
C1380       C  0.70652638  0.80347337  0.68226046    -0.07910
C1381       C  0.68230219  0.80295604  0.68193963    -0.02460
C1382       C  0.67045970  0.78624552  0.69499528     0.04350
N1383       N  0.64563208  0.78644870  0.69705695     0.66860
H1384       H  0.67397070  0.75596797  0.71566863     0.15760
H1385       H  0.71548814  0.81658478  0.67248351     0.15470
N1386       N  0.74417587  0.78887060  0.69514568     0.74560
O1387       O  0.63480480  0.76803002  0.70101097    -0.38890
O1388       O  0.63482210  0.80527827  0.69815619    -0.38830
O1389       O  0.75486363  0.79614584  0.67766563    -0.39530
O1390       O  0.75526393  0.78546595  0.71363085    -0.39600
C1391       C  0.71337080  0.68517098  0.77458385    -0.11880
C1392       C  0.70669895  0.70804509  0.76886788     0.05130
C1393       C  0.68715966  0.71696972  0.78120588    -0.07170
C1394       C  0.67585651  0.70356780  0.79773408    -0.07910
C1395       C  0.68272181  0.68117548  0.80257411    -0.02460
C1396       C  0.70195708  0.67186182  0.79123572     0.04350
N1397       N  0.71013064  0.64896213  0.79632704     0.66860
H1398       H  0.72735979  0.67661199  0.76591822     0.15760
H1399       H  0.66078500  0.71055973  0.80634762     0.15470
N1400       N  0.67721297  0.73898161  0.77692016     0.74560
O1401       O  0.72093031  0.63758410  0.78128741    -0.38890
O1402       O  0.70855005  0.64082403  0.81644048    -0.38830
O1403       O  0.65947880  0.74044370  0.76422238    -0.39530
O1404       O  0.68257824  0.75567936  0.78973292    -0.39600
loop_ 
_geom_bond_atom_site_label_1 
_geom_bond_atom_site_label_2 
_geom_bond_distance 
_geom_bond_site_symmetry_2 
_ccdc_geom_bond_type 
C1            C2   1.417       .  A
C1            C6   1.421       .  A
C1         C1392   1.538       .  S
C2            C3   1.407       .  A
C2            H7   1.064       .  S
C3            C4   1.397       .  A
C3         C1378   1.492       .  S
C4            C5   1.393       .  A
C4            H8   1.083       .  S
C5            C6   1.401       .  A
C5         C1364   1.474       .  S
C6            H9   1.079       .  S
C10          C11   1.404       .  A
C10          C15   1.396       .  A
C10        C1350   1.480       .  S
C11          C12   1.416       .  A
C11          H16   1.075       .  S
C12          C13   1.419       .  A
C12        C1336   1.516       .  S
C13          C14   1.403       .  A
C13          H17   1.081       .  S
C14          C15   1.395       .  A
C14        C1322   1.481       .  S
C15          H18   1.085       .  S
C19          C20   1.402       .  A
C19          C24   1.401       .  A
C19        C1280   1.479       .  S
C20          C21   1.405       .  A
C20          H25   1.084       .  S
C21          C22   1.406       .  A
C21        C1311   1.488       .  S
C22          C23   1.403       .  A
C22          H26   1.084       .  S
C23          C24   1.403       .  A
C23        C1294   1.480       .  S
C24          H27   1.084       .  S
C28          C29   1.405       .  A
C28          C33   1.408       .  A
C28        C1255   1.495       .  S
C29          C30   1.399       .  A
C29          H34   1.083       .  S
C30          C31   1.400       .  A
C30        C1269   1.479       .  S
C31          C32   1.409       .  A
C31          H35   1.081       .  S
C32          C33   1.412       .  A
C32        C1241   1.502       .  S
C33          H36   1.082       .  S
C37          C38   1.410       .  A
C37          C42   1.408       .  A
C37        C1210   1.498       .  S
C38          C39   1.405       .  A
C38          H43   1.083       .  S
C39          C40   1.403       .  A
C39        C1224   1.492       .  S
C40          C41   1.401       .  A
C40          H44   1.084       .  S
C41          C42   1.404       .  A
C41        C1196   1.482       .  S
C42          H45   1.082       .  S
C46          C47   1.401       .  A
C46          C51   1.400       .  A
C46        C1171   1.477       .  S
C47          C48   1.407       .  A
C47          H52   1.083       .  S
C48          C49   1.405       .  A
C48        C1182   1.494       .  S
C49          C50   1.406       .  A
C49          H53   1.083       .  S
C50          C51   1.405       .  A
C50        C1154   1.490       .  S
C51          H54   1.083       .  S
O55         Cu63   2.041       .  S
O55          C65   1.280       .  A
O56         Cu63   2.045       .  S
O56          C66   1.282       .  A
O57         Cu63   2.025       .  S
O57          C67   1.278       .  A
O58         Cu63   2.025       .  S
O58          C68   1.279       .  A
O59         Cu64   1.993       .  S
O59          C68   1.275       .  A
O60         Cu64   1.993       .  S
O60          C67   1.278       .  A
O61         Cu64   1.975       .  S
O61          C66   1.274       .  A
O62         Cu64   1.976       .  S
O62          C65   1.276       .  A
Cu63        Cu64   2.368       .  S
C65        C1143   1.494       .  S
C66        C1098   1.480       .  S
C67        C1112   1.490       .  S
C68        C1126   1.469       .  S
N69          N70   1.319       .  A
N69          C73   1.350       .  A
N69         Cu77   2.074       .  S
N70          C71   1.339       .  A
N70         Cu76   2.060       .  S
C71          C72   1.383       .  A
C71          H74   1.082       .  S
C72          C73   1.389       .  A
C72        C1101   1.481       .  S
C73          H75   1.082       .  S
Cu76         N79   2.060       .  S
Cu77         N87   2.077       .  S
Cu78         N80   2.085       .  S
Cu78         N86   2.087       .  S
N79          N80   1.321       .  A
N79          C83   1.339   1_554  A
N80          C81   1.351   1_554  A
C81          C82   1.388       .  A
C81          H84   1.082       .  S
C82          C83   1.380       .  A
C82         C192   1.473       .  S
C83          H85   1.082       .  S
N86          N87   1.326       .  A
N86          C90   1.349       .  A
N87          C88   1.341       .  A
C88          C89   1.381       .  A
C88          H91   1.082       .  S
C89          C90   1.385       .  A
C89        C1084   1.478       .  S
C90          H92   1.082       .  S
N93          N94   1.321       .  A
N93          C97   1.349       .  A
N93        Cu101   2.078       .  S
N94          C95   1.343       .  A
N94        Cu100   2.063       .  S
C95          C96   1.380       .  A
C95          H98   1.082       .  S
C96          C97   1.384       .  A
C96        C1129   1.473       .  S
C97          H99   1.082       .  S
Cu100       N103   2.064       .  S
Cu101       N111   2.080       .  S
Cu102       N104   2.086       .  S
Cu102       N110   2.087       .  S
N103        N104   1.322       .  A
N103        C107   1.339   1_554  A
N104        C105   1.352   1_554  A
C105        C106   1.388       .  A
C105        H108   1.082       .  S
C106        C107   1.381       .  A
C106        C216   1.474       .  S
C107        H109   1.082       .  S
N110        N111   1.326       .  A
N110        C114   1.348       .  A
N111        C112   1.344       .  A
C112        C113   1.380       .  A
C112        H115   1.082       .  S
C113        C114   1.382       .  A
C113       C1339   1.474       .  S
C114        H116   1.082       .  S
N117        N118   1.318       .  A
N117        C121   1.350       .  A
N117       Cu125   2.078       .  S
N118        C119   1.338       .  A
N118       Cu124   2.054       .  S
C119        C120   1.383       .  A
C119        H122   1.082       .  S
C120        C121   1.390       .  A
C120       C1115   1.484       .  S
C121        H123   1.082       .  S
Cu124       N127   2.055       .  S
Cu125       N135   2.081       .  S
Cu126       N128   2.079       .  S
Cu126       N134   2.081       .  S
N127        N128   1.321       .  A
N127        C131   1.338   1_554  A
N128        C129   1.351   1_554  A
C129        C130   1.387       .  A
C129        H132   1.082       .  S
C130        C131   1.379       .  A
C130        C240   1.470       .  S
C131        H133   1.082       .  S
N134        N135   1.325       .  A
N134        C138   1.347       .  A
N135        C136   1.341       .  A
C136        C137   1.385       .  A
C136        H139   1.082       .  S
C137        C138   1.386       .  A
C137       C1168   1.485       .  S
C138        H140   1.081       .  S
N141        N142   1.317       .  A
N141        C145   1.351       .  A
N141       Cu149   2.079       .  S
N142        C143   1.337       .  A
N142       Cu148   2.051       .  S
C143        C144   1.385       .  A
C143        H146   1.081       .  S
C144        C145   1.392       .  A
C144       C1140   1.489       .  S
C145        H147   1.082       .  S
Cu148       N151   2.052       .  S
Cu149       N159   2.083       .  S
Cu150       N152   2.079       .  S
Cu150       N158   2.082       .  S
N151        N152   1.320       .  A
N151        C155   1.337   1_554  A
N152        C153   1.351   1_554  A
C153        C154   1.388       .  A
C153        H156   1.082       .  S
C154        C155   1.378       .  A
C154        C264   1.470       .  S
C155        H157   1.081       .  S
N158        N159   1.325       .  A
N158        C162   1.348       .  A
N159        C160   1.341       .  A
C160        C161   1.384       .  A
C160        H163   1.082       .  S
C161        C162   1.385       .  A
C161       C1070   1.483       .  S
C162        H164   1.081       .  S
O165       Cu173   2.019       .  S
O165        C175   1.278       .  A
O166       Cu173   2.018       .  S
O166        C176   1.278       .  A
O167       Cu173   2.020       .  S
O167        C177   1.278       .  A
O168       Cu173   2.021       .  S
O168        C178   1.279       .  A
O169       Cu174   1.995       .  S
O169        C178   1.276       .  A
O170       Cu174   1.994       .  S
O170        C177   1.275       .  A
O171       Cu174   2.005       .  S
O171        C176   1.278       .  A
O172       Cu174   2.000       .  S
O172        C175   1.277       .  A
Cu173      Cu174   2.377       .  S
C175       C1056   1.476       .  S
C176       C1014   1.474       .  S
C177       C1042   1.467       .  S
C178       C1028   1.469       .  S
N179        N180   1.320       .  A
N179        C183   1.348       .  A
N179       Cu187   2.075       .  S
N180        C181   1.342       .  A
N180       Cu186   2.059       .  S
C181        C182   1.380       .  A
C181        H184   1.082       .  S
C182        C183   1.386       .  A
C182       C1017   1.474       .  S
C183        H185   1.082       .  S
Cu186       N189   2.060       .  S
Cu187       N197   2.077       .  S
Cu188       N190   2.086       .  S
Cu188       N196   2.088       .  S
N189        N190   1.322       .  A
N189        C193   1.339       .  A
N190        C191   1.351       .  A
C191        C192   1.388       .  A
C191        H194   1.082       .  S
C192        C193   1.380       .  A
C193        H195   1.082       .  S
N196        N197   1.326       .  A
N196        C200   1.348       .  A
N197        C198   1.343       .  A
C198        C199   1.379       .  A
C198        H201   1.082       .  S
C199        C200   1.384       .  A
C199       C1238   1.476       .  S
C200        H202   1.082       .  S
N203        N204   1.319       .  A
N203        C207   1.346       .  A
N203       Cu211   2.064       .  S
N204        C205   1.342       .  A
N204       Cu210   2.059       .  S
C205        C206   1.380       .  A
C205        H208   1.082       .  S
C206        C207   1.383       .  A
C206       C1045   1.469       .  S
C207        H209   1.082       .  S
Cu210       N213   2.060       .  S
Cu211       N221   2.066       .  S
Cu212       N214   2.094       .  S
Cu212       N220   2.095       .  S
N213        N214   1.322       .  A
N213        C217   1.338       .  A
N214        C215   1.352       .  A
C215        C216   1.389       .  A
C215        H218   1.082       .  S
C216        C217   1.379       .  A
C217        H219   1.082       .  S
N220        N221   1.325       .  A
N220        C224   1.349       .  A
N221        C222   1.341       .  A
C222        C223   1.380       .  A
C222        H225   1.082       .  S
C223        C224   1.389       .  A
C223       C1199   1.482       .  S
C224        H226   1.082       .  S
N227        N228   1.320       .  A
N227        C231   1.347       .  A
N227       Cu235   2.070       .  S
N228        C229   1.342       .  A
N228       Cu234   2.057       .  S
C229        C230   1.379       .  A
C229        H232   1.082       .  S
C230        C231   1.384       .  A
C230       C1031   1.469       .  S
C231        H233   1.082       .  S
Cu234       N237   2.057       .  S
Cu235       N245   2.072       .  S
Cu236       N238   2.083       .  S
Cu236       N244   2.085       .  S
N237        N238   1.322       .  A
N237        C241   1.338       .  A
N238        C239   1.351       .  A
C239        C240   1.387       .  A
C239        H242   1.082       .  S
C240        C241   1.379       .  A
C241        H243   1.082       .  S
N244        N245   1.324       .  A
N244        C248   1.347       .  A
N245        C246   1.341       .  A
C246        C247   1.384       .  A
C246        H249   1.081       .  S
C247        C248   1.388       .  A
C247       C1283   1.486       .  S
C248        H250   1.082       .  S
N251        N252   1.320       .  A
N251        C255   1.349       .  A
N251       Cu259   2.081       .  S
N252        C253   1.340       .  A
N252       Cu258   2.055       .  S
C253        C254   1.380       .  A
C253        H256   1.082       .  S
C254        C255   1.387       .  A
C254       C1059   1.475       .  S
C255        H257   1.082       .  S
Cu258       N261   2.056       .  S
Cu259       N269   2.083       .  S
Cu260       N262   2.074       .  S
Cu260       N268   2.076       .  S
N261        N262   1.320       .  A
N261        C265   1.337       .  A
N262        C263   1.350       .  A
C263        C264   1.387       .  A
C263        H266   1.082       .  S
C264        C265   1.380       .  A
C265        H267   1.081       .  S
N268        N269   1.326       .  A
N268        C272   1.345       .  A
N269        C270   1.345       .  A
C270        C271   1.380       .  A
C270        H273   1.082       .  S
C271        C272   1.378       .  A
C271       C1395   1.469       .  S
C272        H274   1.082       .  S
O275       Cu283   2.043       .  S
O275        C285   1.282       .  A
O276       Cu283   2.042       .  S
O276        C286   1.282       .  A
O277       Cu283   2.017       .  S
O277        C287   1.278       .  A
O278       Cu283   2.015       .  S
O278        C288   1.277       .  A
O279       Cu284   2.006       .  S
O279        C288   1.277       .  A
O280       Cu284   2.002       .  S
O280        C287   1.278       .  A
O281       Cu284   1.973       .  S
O281        C286   1.273       .  A
O282       Cu284   1.977       .  S
O282        C285   1.274       .  A
Cu283      Cu284   2.370       .  S
C285        C972   1.478       .  S
C286        C989   1.488       .  S
C287        C958   1.475       .  S
C288       C1003   1.470       .  S
N289        N290   1.318       .  A
N289        C293   1.349       .  A
N289       Cu297   2.076       .  S
N290        C291   1.340       .  A
N290       Cu296   2.054       .  S
C291        C292   1.382       .  A
C291        H294   1.082       .  S
C292        C293   1.389       .  A
C292        C961   1.480       .  S
C293        H295   1.082       .  S
Cu296       N299   2.055       .  S
Cu297       N307   2.078       .  S
Cu298       N300   2.091       .  S
Cu298       N306   2.093       .  S
N299        N300   1.321       .  A
N299        C303   1.337   1_545  A
N300        C301   1.353   1_545  A
C301        C302   1.390       .  A
C301        H304   1.082       .  S
C302        C303   1.379       .  A
C302        C412   1.475       .  S
C303        H305   1.081       .  S
N306        N307   1.325       .  A
N306        C310   1.348       .  A
N307        C308   1.341       .  A
C308        C309   1.385       .  A
C308        H311   1.081       .  S
C309        C310   1.390       .  A
C309        C947   1.492       .  S
C310        H312   1.081       .  S
N313        N314   1.318       .  A
N313        C317   1.350       .  A
N313       Cu321   2.077       .  S
N314        C315   1.338       .  A
N314       Cu320   2.056       .  S
C315        C316   1.384       .  A
C315        H318   1.082       .  S
C316        C317   1.391       .  A
C316        C986   1.486       .  S
C317        H319   1.082       .  S
Cu320       N323   2.057       .  S
Cu321       N331   2.080       .  S
Cu322       N324   2.077       .  S
Cu322       N330   2.080       .  S
N323        N324   1.320       .  A
N323        C327   1.338   1_545  A
N324        C325   1.350   1_545  A
C325        C326   1.387       .  A
C325        H328   1.082       .  S
C326        C327   1.380       .  A
C326        C436   1.471       .  S
C327        H329   1.082       .  S
N330        N331   1.326       .  A
N330        C334   1.346       .  A
N331        C332   1.343       .  A
C332        C333   1.380       .  A
C332        H335   1.082       .  S
C333        C334   1.380       .  A
C333       C1185   1.471       .  S
C334        H336   1.082       .  S
N337        N338   1.319       .  A
N337        C341   1.350       .  A
N337       Cu345   2.075       .  S
N338        C339   1.340       .  A
N338       Cu344   2.057       .  S
C339        C340   1.381       .  A
C339        H342   1.082       .  S
C340        C341   1.387       .  A
C340        C975   1.477       .  S
C341        H343   1.082       .  S
Cu344       N347   2.057       .  S
Cu345       N355   2.078       .  S
Cu346       N348   2.085       .  S
Cu346       N354   2.086       .  S
N347        N348   1.321       .  A
N347        C351   1.338   1_545  A
N348        C349   1.351   1_545  A
C349        C350   1.388       .  A
C349        H352   1.082       .  S
C350        C351   1.379       .  A
C350        C460   1.472       .  S
C351        H353   1.082       .  S
N354        N355   1.324       .  A
N354        C358   1.348       .  A
N355        C356   1.340       .  A
C356        C357   1.387       .  A
C356        H359   1.081       .  S
C357        C358   1.390       .  A
C357       C1266   1.492       .  S
C358        H360   1.081       .  S
N361        N362   1.320       .  A
N361        C365   1.346       .  A
N361       Cu369   2.066       .  S
N362        C363   1.342       .  A
N362       Cu368   2.060       .  S
C363        C364   1.380       .  A
C363        H366   1.082       .  S
C364        C365   1.383       .  A
C364       C1000   1.470       .  S
C365        H367   1.082       .  S
Cu368       N371   2.060       .  S
Cu369       N379   2.068       .  S
Cu370       N372   2.085       .  S
Cu370       N378   2.086       .  S
N371        N372   1.322       .  A
N371        C375   1.339   1_545  A
N372        C373   1.350   1_545  A
C373        C374   1.387       .  A
C373        H376   1.082       .  S
C374        C375   1.379       .  A
C374        C484   1.472       .  S
C375        H377   1.082       .  S
N378        N379   1.324       .  A
N378        C382   1.348       .  A
N379        C380   1.341       .  A
C380        C381   1.381       .  A
C380        H383   1.082       .  S
C381        C382   1.386       .  A
C381       C1308   1.479       .  S
C382        H384   1.080       .  S
O385       Cu393   2.028       .  S
O385        C395   1.280       .  A
O386       Cu393   2.030       .  S
O386        C396   1.279       .  A
O387       Cu393   2.024       .  S
O387        C397   1.279       .  A
O388       Cu393   2.022       .  S
O388        C398   1.279       .  A
O389       Cu394   1.986       .  S
O389        C398   1.275       .  A
O390       Cu394   1.987       .  S
O390        C397   1.276       .  A
O391       Cu394   1.991       .  S
O391        C396   1.276       .  A
O392       Cu394   1.989       .  S
O392        C395   1.276       .  A
Cu393      Cu394   2.374       .  S
C395        C916   1.482       .  S
C396        C902   1.476       .  S
C397        C888   1.475       .  S
C398        C930   1.470       .  S
N399        N400   1.318       .  A
N399        C403   1.348       .  A
N399       Cu407   2.069       .  S
N400        C401   1.339       .  A
N400       Cu406   2.054       .  S
C401        C402   1.382       .  A
C401        H404   1.082       .  S
C402        C403   1.388       .  A
C402        C891   1.478       .  S
C403        H405   1.082       .  S
Cu406       N409   2.054       .  S
Cu407       N417   2.072       .  S
Cu408       N410   2.093       .  S
Cu408       N416   2.096       .  S
N409        N410   1.321       .  A
N409        C413   1.337       .  A
N410        C411   1.354       .  A
C411        C412   1.391       .  A
C411        H414   1.082       .  S
C412        C413   1.379       .  A
C413        H415   1.081       .  S
N416        N417   1.326       .  A
N416        C420   1.349       .  A
N417        C418   1.341       .  A
C418        C419   1.381       .  A
C418        H421   1.082       .  S
C419        C420   1.387       .  A
C419       C1325   1.483       .  S
C420        H422   1.082       .  S
N423        N424   1.319       .  A
N423        C427   1.350       .  A
N423       Cu431   2.079       .  S
N424        C425   1.339       .  A
N424       Cu430   2.054       .  S
C425        C426   1.382       .  A
C425        H428   1.082       .  S
C426        C427   1.390       .  A
C426        C919   1.481       .  S
C427        H429   1.082       .  S
Cu430       N433   2.054       .  S
Cu431       N441   2.082       .  S
Cu432       N434   2.081       .  S
Cu432       N440   2.084       .  S
N433        N434   1.321       .  A
N433        C437   1.338       .  A
N434        C435   1.351       .  A
C435        C436   1.388       .  A
C435        H438   1.082       .  S
C436        C437   1.379       .  A
C437        H439   1.082       .  S
N440        N441   1.326       .  A
N440        C444   1.348       .  A
N441        C442   1.342       .  A
C442        C443   1.382       .  A
C442        H445   1.082       .  S
C443        C444   1.384       .  A
C443        C874   1.479       .  S
C444        H446   1.082       .  S
N447        N448   1.320       .  A
N447        C451   1.350       .  A
N447       Cu455   2.083       .  S
N448        C449   1.341       .  A
N448       Cu454   2.060       .  S
C449        C450   1.380       .  A
C449        H452   1.082       .  S
C450        C451   1.387       .  A
C450        C905   1.477       .  S
C451        H453   1.082       .  S
Cu454       N457   2.060       .  S
Cu455       N465   2.085       .  S
Cu456       N458   2.080       .  S
Cu456       N464   2.082       .  S
N457        N458   1.321       .  A
N457        C461   1.339       .  A
N458        C459   1.350       .  A
C459        C460   1.387       .  A
C459        H462   1.082       .  S
C460        C461   1.380       .  A
C461        H463   1.082       .  S
N464        N465   1.326       .  A
N464        C468   1.347       .  A
N465        C466   1.344       .  A
C466        C467   1.382       .  A
C466        H469   1.082       .  S
C467        C468   1.381       .  A
C467       C1213   1.476       .  S
C468        H470   1.082       .  S
N471        N472   1.320       .  A
N471        C475   1.348       .  A
N471       Cu479   2.069       .  S
N472        C473   1.340       .  A
N472       Cu478   2.060       .  S
C473        C474   1.381       .  A
C473        H476   1.082       .  S
C474        C475   1.384       .  A
C474        C933   1.474       .  S
C475        H477   1.082       .  S
Cu478       N481   2.060       .  S
Cu479       N489   2.071       .  S
Cu480       N482   2.081       .  S
Cu480       N488   2.082       .  S
N481        N482   1.321       .  A
N481        C485   1.339       .  A
N482        C483   1.350       .  A
C483        C484   1.387       .  A
C483        H486   1.082       .  S
C484        C485   1.380       .  A
C485        H487   1.082       .  S
N488        N489   1.325       .  A
N488        C492   1.347       .  A
N489        C490   1.342       .  A
C490        C491   1.379       .  A
C490        H493   1.082       .  S
C491        C492   1.382       .  A
C491       C1381   1.473       .  S
C492        H494   1.082       .  S
C495        C496   1.406       .  A
C495        C500   1.407       .  A
C495        C877   1.492       .  S
C496        C497   1.403       .  A
C496        H501   1.084       .  S
C497        C498   1.400       .  A
C497        C860   1.476       .  S
C498        C499   1.401       .  A
C498        H502   1.084       .  S
C499        C500   1.406       .  A
C499       C1073   1.481       .  S
C500        H503   1.082       .  S
O504       Cu512   1.973       .  S
O504        C514   1.275       .  A
O505       Cu512   1.978       .  S
O505        C515   1.275       .  A
O506       Cu512   2.004       .  S
O506        C516   1.277       .  A
O507       Cu512   2.001       .  S
O507        C517   1.277       .  A
O508       Cu513   2.023       .  S
O508        C517   1.278       .  A
O509       Cu513   2.018       .  S
O509        C516   1.277       .  A
O510       Cu513   2.039       .  S
O510        C515   1.280       .  A
O511       Cu513   2.045       .  S
O511        C514   1.282       .  A
Cu512      Cu513   2.370       .  S
C514        C832   1.489       .  S
C515        C821   1.487       .  S
C516        C849   1.477       .  S
C517        C804   1.473       .  S
N518        N519   1.320       .  A
N518        C522   1.350       .  A
N518       Cu526   2.080       .  S
N519        C520   1.341       .  A
N519       Cu525   2.058       .  S
C520        C521   1.380       .  A
C520        H523   1.082       .  S
C521        C522   1.388       .  A
C521        C807   1.477       .  S
C522        H524   1.082       .  S
Cu525       N528   2.058       .  S
Cu526       N536   2.082       .  S
Cu527       N529   2.078       .  S
Cu527       N535   2.080       .  S
N528        N529   1.321       .  A
N528        C532   1.339   1_455  A
N529        C530   1.350   1_455  A
C530        C531   1.386       .  A
C530        H533   1.082       .  S
C531        C532   1.380       .  A
C531        C641   1.470       .  S
C532        H534   1.082       .  S
N535        N536   1.325       .  A
N535        C539   1.348       .  A
N536        C537   1.342       .  A
C537        C538   1.384       .  A
C537        H540   1.082       .  S
C538        C539   1.385       .  A
C538        C790   1.482       .  S
C539        H541   1.081       .  S
N542        N543   1.319       .  A
N542        C546   1.350       .  A
N542       Cu550   2.075       .  S
N543        C544   1.340       .  A
N543       Cu549   2.062       .  S
C544        C545   1.386       .  A
C544        H547   1.081       .  S
C545        C546   1.389       .  A
C545        C835   1.487       .  S
C546        H548   1.082       .  S
Cu549       N552   2.063       .  S
Cu550       N560   2.078       .  S
Cu551       N553   2.085       .  S
Cu551       N559   2.086       .  S
N552        N553   1.322       .  A
N552        C556   1.339   1_455  A
N553        C554   1.352   1_455  A
C554        C555   1.388       .  A
C554        H557   1.082       .  S
C555        C556   1.380       .  A
C555        C665   1.473       .  S
C556        H558   1.082       .  S
N559        N560   1.324       .  A
N559        C563   1.347       .  A
N560        C561   1.342       .  A
C561        C562   1.387       .  A
C561        H564   1.081       .  S
C562        C563   1.389       .  A
C562       C1353   1.492       .  S
C563        H565   1.081       .  S
N566        N567   1.319       .  A
N566        C570   1.349       .  A
N566       Cu574   2.075       .  S
N567        C568   1.339       .  A
N567       Cu573   2.057       .  S
C568        C569   1.384       .  A
C568        H571   1.082       .  S
C569        C570   1.388       .  A
C569        C818   1.483       .  S
C570        H572   1.082       .  S
Cu573       N576   2.057       .  S
Cu574       N584   2.078       .  S
Cu575       N577   2.086       .  S
Cu575       N583   2.088       .  S
N576        N577   1.321       .  A
N576        C580   1.338   1_455  A
N577        C578   1.351   1_455  A
C578        C579   1.388       .  A
C578        H581   1.082       .  S
C579        C580   1.379       .  A
C579        C689   1.473       .  S
C580        H582   1.082       .  S
N583        N584   1.326       .  A
N583        C587   1.348       .  A
N584        C585   1.342       .  A
C585        C586   1.380       .  A
C585        H588   1.081       .  S
C586        C587   1.383       .  A
C586       C1252   1.475       .  S
C587        H589   1.082       .  S
N590        N591   1.320       .  A
N590        C594   1.350       .  A
N590       Cu598   2.085       .  S
N591        C592   1.340       .  A
N591       Cu597   2.055       .  S
C592        C593   1.379       .  A
C592        H595   1.082       .  S
C593        C594   1.388       .  A
C593        C846   1.476       .  S
C594        H596   1.082       .  S
Cu597       N600   2.056       .  S
Cu598       N608   2.088       .  S
Cu599       N601   2.082       .  S
Cu599       N607   2.084       .  S
N600        N601   1.320       .  A
N600        C604   1.338   1_455  A
N601        C602   1.351   1_455  A
C602        C603   1.388       .  A
C602        H605   1.082       .  S
C603        C604   1.380       .  A
C603        C713   1.473       .  S
C604        H606   1.081       .  S
N607        N608   1.326       .  A
N607        C611   1.347       .  A
N608        C609   1.345       .  A
C609        C610   1.383       .  A
C609        H612   1.082       .  S
C610        C611   1.383       .  A
C610       C1227   1.478       .  S
C611        H613   1.082       .  S
O614       Cu622   2.027       .  S
O614        C624   1.279       .  A
O615       Cu622   2.027       .  S
O615        C625   1.279       .  A
O616       Cu622   2.032       .  S
O616        C626   1.280       .  A
O617       Cu622   2.030       .  S
O617        C627   1.280       .  A
O618       Cu623   1.977       .  S
O618        C627   1.274       .  A
O619       Cu623   1.981       .  S
O619        C626   1.273       .  A
O620       Cu623   1.991       .  S
O620        C625   1.275       .  A
O621       Cu623   1.990       .  S
O621        C624   1.277       .  A
Cu622      Cu623   2.371       .  S
C624        C762   1.485       .  S
C625        C748   1.470       .  S
C626        C776   1.468       .  S
C627        C734   1.490       .  S
N628        N629   1.318       .  A
N628        C632   1.351       .  A
N628       Cu636   2.077       .  S
N629        C630   1.336       .  A
N629       Cu635   2.052       .  S
C630        C631   1.384       .  A
C630        H633   1.082       .  S
C631        C632   1.392       .  A
C631        C737   1.487       .  S
C632        H634   1.082       .  S
Cu635       N638   2.053       .  S
Cu636       N646   2.081       .  S
Cu637       N639   2.075       .  S
Cu637       N645   2.078       .  S
N638        N639   1.319       .  A
N638        C642   1.338       .  A
N639        C640   1.350       .  A
C640        C641   1.387       .  A
C640        H643   1.082       .  S
C641        C642   1.380       .  A
C642        H644   1.082       .  S
N645        N646   1.326       .  A
N645        C649   1.345       .  A
N646        C647   1.344       .  A
C647        C648   1.381       .  A
C647        H650   1.082       .  S
C648        C649   1.381       .  A
C648       C1157   1.473       .  S
C649        H651   1.082       .  S
N652        N653   1.319       .  A
N652        C656   1.350       .  A
N652       Cu660   2.079       .  S
N653        C654   1.339       .  A
N653       Cu659   2.054       .  S
C654        C655   1.382       .  A
C654        H657   1.082       .  S
C655        C656   1.389       .  A
C655        C765   1.482       .  S
C656        H658   1.082       .  S
Cu659       N662   2.055       .  S
Cu660       N670   2.081       .  S
Cu661       N663   2.087       .  S
Cu661       N669   2.090       .  S
N662        N663   1.321       .  A
N662        C666   1.338       .  A
N663        C664   1.352       .  A
C664        C665   1.389       .  A
C664        H667   1.082       .  S
C665        C666   1.379       .  A
C666        H668   1.082       .  S
N669        N670   1.325       .  A
N669        C673   1.347       .  A
N670        C671   1.343       .  A
C671        C672   1.386       .  A
C671        H674   1.081       .  S
C672        C673   1.388       .  A
C672        C863   1.490       .  S
C673        H675   1.082       .  S
N676        N677   1.320       .  A
N676        C680   1.347       .  A
N676       Cu684   2.069       .  S
N677        C678   1.342       .  A
N677       Cu683   2.062       .  S
C678        C679   1.380       .  A
C678        H681   1.082       .  S
C679        C680   1.384       .  A
C679        C751   1.471       .  S
C680        H682   1.082       .  S
Cu683       N686   2.063       .  S
Cu684       N694   2.070       .  S
Cu685       N687   2.084       .  S
Cu685       N693   2.085       .  S
N686        N687   1.322       .  A
N686        C690   1.339       .  A
N687        C688   1.351       .  A
C688        C689   1.387       .  A
C688        H691   1.082       .  S
C689        C690   1.380       .  A
C690        H692   1.082       .  S
N693        N694   1.324       .  A
N693        C697   1.347       .  A
N694        C695   1.341       .  A
C695        C696   1.383       .  A
C695        H698   1.081       .  S
C696        C697   1.387       .  A
C696       C1297   1.484       .  S
C697        H699   1.082       .  S
N700        N701   1.319       .  A
N700        C704   1.346       .  A
N700       Cu708   2.061       .  S
N701        C702   1.343       .  A
N701       Cu707   2.062       .  S
C702        C703   1.381       .  A
C702        H705   1.082       .  S
C703        C704   1.382       .  A
C703        C779   1.469       .  S
C704        H706   1.082       .  S
Cu707       N710   2.063       .  S
Cu708       N718   2.062       .  S
Cu709       N711   2.090       .  S
Cu709       N717   2.091       .  S
N710        N711   1.323       .  A
N710        C714   1.338       .  A
N711        C712   1.352       .  A
C712        C713   1.388       .  A
C712        H715   1.082       .  S
C713        C714   1.379       .  A
C714        H716   1.081       .  S
N717        N718   1.321       .  A
N717        C721   1.348       .  A
N718        C719   1.338       .  A
C719        C720   1.388       .  A
C719        H722   1.076       .  S
C720        C721   1.397       .  A
C720       C1367   1.501       .  S
C721        H723   1.081       .  S
C724        C725   1.407       .  A
C724        C729   1.408       .  A
C724       C1087   1.492       .  S
C725        C726   1.402       .  A
C725        H730   1.084       .  S
C726        C727   1.400       .  A
C726        C944   1.478       .  S
C727        C728   1.402       .  A
C727        H731   1.084       .  S
C728        C729   1.406       .  A
C728        C793   1.483       .  S
C729        H732   1.082       .  S
C733        C734   1.409       .  A
C733        C738   1.411       .  A
C733        H740   1.083       .  S
C734        C735   1.416       .  A
C735        C736   1.391       .  A
C735        N742   1.432       .  S
C736        C737   1.402       .  A
C736        H741   1.083       .  S
C737        C738   1.417       .  A
C738        N739   1.436       .  S
N739        O743   1.263       .  A
N739        O744   1.262       .  A
N742        O745   1.262       .  A
N742        O746   1.263       .  A
C747        C748   1.402       .  A
C747        C752   1.407       .  A
C747        H754   1.083       .  S
C748        C749   1.416       .  A
C749        C750   1.401       .  A
C749        N756   1.441       .  S
C750        C751   1.400       .  A
C750        H755   1.084       .  S
C751        C752   1.416       .  A
C752        N753   1.443       .  S
N753        O757   1.263       .  A
N753        O758   1.262       .  A
N756        O759   1.261       .  A
N756        O760   1.263       .  A
C761        C762   1.404       .  A
C761        C766   1.397       .  A
C761        H768   1.084       .  S
C762        C763   1.418       .  A
C763        C764   1.410       .  A
C763        N770   1.436       .  S
C764        C765   1.405       .  A
C764        H769   1.084       .  S
C765        C766   1.413       .  A
C766        N767   1.439       .  S
N767        O771   1.263       .  A
N767        O772   1.263       .  A
N770        O773   1.262       .  A
N770        O774   1.263       .  A
C775        C776   1.402       .  A
C775        C780   1.407       .  A
C775        H782   1.084       .  S
C776        C777   1.416       .  A
C777        C778   1.401       .  A
C777        N784   1.441       .  S
C778        C779   1.399       .  A
C778        H783   1.084       .  S
C779        C780   1.415       .  A
C780        N781   1.443       .  S
N781        O785   1.263       .  A
N781        O786   1.262       .  A
N784        O787   1.261       .  A
N784        O788   1.263       .  A
C789        C790   1.401       .  A
C789        C794   1.399       .  A
C789        H796   1.083       .  S
C790        C791   1.411       .  A
C791        C792   1.404       .  A
C791        N798   1.428       .  S
C792        C793   1.405       .  A
C792        H797   1.084       .  S
C793        C794   1.415       .  A
C794        N795   1.436       .  S
N795        O799   1.263       .  A
N795        O800   1.262       .  A
N798        O801   1.262       .  A
N798        O802   1.262       .  A
C803        C804   1.403       .  A
C803        C808   1.408       .  A
C803        H810   1.084       .  S
C804        C805   1.413       .  A
C805        C806   1.402       .  A
C805        N812   1.442       .  S
C806        C807   1.402       .  A
C806        H811   1.084       .  S
C807        C808   1.416       .  A
C808        N809   1.440       .  S
N809        O813   1.263       .  A
N809        O814   1.263       .  A
N812        O815   1.262       .  A
N812        O816   1.263       .  A
C817        C818   1.406       .  A
C817        C822   1.410       .  A
C817        H824   1.084       .  S
C818        C819   1.413       .  A
C819        C820   1.397       .  A
C819        N826   1.438       .  S
C820        C821   1.405       .  A
C820        H825   1.084       .  S
C821        C822   1.417       .  A
C822        N823   1.434       .  S
N823        O827   1.262       .  A
N823        O828   1.262       .  A
N826        O829   1.263       .  A
N826        O830   1.263       .  A
C831        C832   1.406       .  A
C831        C836   1.396       .  A
C831        H838   1.084       .  S
C832        C833   1.418       .  A
C833        C834   1.411       .  A
C833        N840   1.435       .  S
C834        C835   1.407       .  A
C834        H839   1.083       .  S
C835        C836   1.413       .  A
C836        N837   1.437       .  S
N837        O841   1.263       .  A
N837        O842   1.263       .  A
N840        O843   1.262       .  A
N840        O844   1.263       .  A
C845        C846   1.402       .  A
C845        C850   1.409       .  A
C845        H852   1.084       .  S
C846        C847   1.410       .  A
C847        C848   1.398       .  A
C847        N854   1.432       .  S
C848        C849   1.402       .  A
C848        H853   1.084       .  S
C849        C850   1.419       .  A
C850        N851   1.439       .  S
N851        O855   1.263       .  A
N851        O856   1.261       .  A
N854        O857   1.262       .  A
N854        O858   1.262       .  A
C859        C860   1.399       .  A
C859        C864   1.399       .  A
C859        H866   1.084       .  S
C860        C861   1.414       .  A
C861        C862   1.409       .  A
C861        N868   1.443       .  S
C862        C863   1.408       .  A
C862        H867   1.082       .  S
C863        C864   1.417       .  A
C864        N865   1.434       .  S
N865        O869   1.262       .  A
N865        O870   1.263       .  A
N868        O871   1.263       .  A
N868        O872   1.263       .  A
C873        C874   1.400       .  A
C873        C878   1.395       .  A
C873        H880   1.084       .  S
C874        C875   1.416       .  A
C875        C876   1.409       .  A
C875        N882   1.439       .  S
C876        C877   1.408       .  A
C876        H881   1.084       .  S
C877        C878   1.413       .  A
C878        N879   1.427       .  S
N879        O883   1.261       .  A
N879        O884   1.262       .  A
N882        O885   1.262       .  A
N882        O886   1.263       .  A
C887        C888   1.404       .  A
C887        C892   1.409       .  A
C887        H894   1.084       .  S
C888        C889   1.413       .  A
C889        C890   1.398       .  A
C889        N896   1.440       .  S
C890        C891   1.402       .  A
C890        H895   1.084       .  S
C891        C892   1.417       .  A
C892        N893   1.438       .  S
N893        O897   1.263       .  A
N893        O898   1.262       .  A
N896        O899   1.263       .  A
N896        O900   1.263       .  A
C901        C902   1.402       .  A
C901        C906   1.400       .  A
C901        H908   1.085       .  S
C902        C903   1.416       .  A
C903        C904   1.410       .  A
C903        N910   1.440       .  S
C904        C905   1.404       .  A
C904        H909   1.084       .  S
C905        C906   1.415       .  A
C906        N907   1.439       .  S
N907        O911   1.263       .  A
N907        O912   1.261       .  A
N910        O913   1.262       .  A
N910        O914   1.263       .  A
C915        C916   1.406       .  A
C915        C920   1.410       .  A
C915        H922   1.084       .  S
C916        C917   1.415       .  A
C917        C918   1.398       .  A
C917        N924   1.439       .  S
C918        C919   1.402       .  A
C918        H923   1.084       .  S
C919        C920   1.416       .  A
C920        N921   1.439       .  S
N921        O925   1.263       .  A
N921        O926   1.262       .  A
N924        O927   1.262       .  A
N924        O928   1.263       .  A
C929        C930   1.401       .  A
C929        C934   1.399       .  A
C929        H936   1.084       .  S
C930        C931   1.419       .  A
C931        C932   1.409       .  A
C931        N938   1.444       .  S
C932        C933   1.403       .  A
C932        H937   1.084       .  S
C933        C934   1.412       .  A
C934        N935   1.441       .  S
N935        O939   1.263       .  A
N935        O940   1.263       .  A
N938        O941   1.262       .  A
N938        O942   1.263       .  A
C943        C944   1.402       .  A
C943        C948   1.407       .  A
C943        H950   1.084       .  S
C944        C945   1.412       .  A
C945        C946   1.400       .  A
C945        N952   1.439       .  S
C946        C947   1.407       .  A
C946        H951   1.082       .  S
C947        C948   1.418       .  A
C948        N949   1.435       .  S
N949        O953   1.263       .  A
N949        O954   1.263       .  A
N952        O955   1.261       .  A
N952        O956   1.263       .  A
C957        C958   1.404       .  A
C957        C962   1.407       .  A
C957        H964   1.084       .  S
C958        C959   1.412       .  A
C959        C960   1.401       .  A
C959        N966   1.441       .  S
C960        C961   1.404       .  A
C960        H965   1.084       .  S
C961        C962   1.416       .  A
C962        N963   1.438       .  S
N963        O967   1.263       .  A
N963        O968   1.262       .  A
N966        O969   1.263       .  A
N966        O970   1.263       .  A
C971        C972   1.405       .  A
C971        C976   1.411       .  A
C971        H978   1.084       .  S
C972        C973   1.416       .  A
C973        C974   1.397       .  A
C973        N980   1.441       .  S
C974        C975   1.399       .  A
C974        H979   1.084       .  S
C975        C976   1.417       .  A
C976        N977   1.441       .  S
N977        O981   1.263       .  A
N977        O982   1.262       .  A
N980        O983   1.261       .  A
N980        O984   1.263       .  A
C985        C986   1.401       .  A
C985        C990   1.394       .  A
C985        H992   1.083       .  S
C986        C987   1.417       .  A
C987        C988   1.411       .  A
C987        N994   1.436       .  S
C988        C989   1.407       .  A
C988        H993   1.083       .  S
C989        C990   1.419       .  A
C990        N991   1.438       .  S
N991        O995   1.263       .  A
N991        O996   1.262       .  A
N994        O997   1.262       .  A
N994        O998   1.263       .  A
C999       C1000   1.401       .  A
C999       C1004   1.403       .  A
C999       H1006   1.084       .  S
C1000      C1001   1.415       .  A
C1001      C1002   1.405       .  A
C1001      N1008   1.442       .  S
C1002      C1003   1.400       .  A
C1002      H1007   1.082       .  S
C1003      C1004   1.412       .  A
C1004      N1005   1.441       .  S
N1005      O1009   1.263       .  A
N1005      O1010   1.262       .  A
N1008      O1011   1.262       .  A
N1008      O1012   1.263       .  A
C1013      C1014   1.403       .  A
C1013      C1018   1.406       .  A
C1013      H1020   1.083       .  S
C1014      C1015   1.418       .  A
C1015      C1016   1.404       .  A
C1015      N1022   1.443       .  S
C1016      C1017   1.401       .  A
C1016      H1021   1.084       .  S
C1017      C1018   1.415       .  A
C1018      N1019   1.442       .  S
N1019      O1023   1.263       .  A
N1019      O1024   1.262       .  A
N1022      O1025   1.261       .  A
N1022      O1026   1.263       .  A
C1027      C1028   1.402       .  A
C1027      C1032   1.405       .  A
C1027      H1034   1.084       .  S
C1028      C1029   1.418       .  A
C1029      C1030   1.404       .  A
C1029      N1036   1.445       .  S
C1030      C1031   1.400       .  A
C1030      H1035   1.084       .  S
C1031      C1032   1.414       .  A
C1032      N1033   1.443       .  S
N1033      O1037   1.263       .  A
N1033      O1038   1.262       .  A
N1036      O1039   1.261       .  A
N1036      O1040   1.263       .  A
C1041      C1042   1.401       .  A
C1041      C1046   1.404       .  A
C1041      H1048   1.084       .  S
C1042      C1043   1.411       .  A
C1043      C1044   1.403       .  A
C1043      N1050   1.437       .  S
C1044      C1045   1.401       .  A
C1044      H1049   1.084       .  S
C1045      C1046   1.414       .  A
C1046      N1047   1.443       .  S
N1047      O1051   1.263       .  A
N1047      O1052   1.263       .  A
N1050      O1053   1.262       .  A
N1050      O1054   1.263       .  A
C1055      C1056   1.401       .  A
C1055      C1060   1.402       .  A
C1055      H1062   1.085       .  S
C1056      C1057   1.418       .  A
C1057      C1058   1.408       .  A
C1057      N1064   1.441       .  S
C1058      C1059   1.403       .  A
C1058      H1063   1.084       .  S
C1059      C1060   1.417       .  A
C1060      N1061   1.442       .  S
N1061      O1065   1.263       .  A
N1061      O1066   1.261       .  A
N1064      O1067   1.261       .  A
N1064      O1068   1.263       .  A
C1069      C1070   1.402       .  A
C1069      C1074   1.397       .  A
C1069      H1076   1.083       .  S
C1070      C1071   1.414       .  A
C1071      C1072   1.405       .  A
C1071      N1078   1.430       .  S
C1072      C1073   1.404       .  A
C1072      H1077   1.084       .  S
C1073      C1074   1.414       .  A
C1074      N1075   1.437       .  S
N1075      O1079   1.263       .  A
N1075      O1080   1.262       .  A
N1078      O1081   1.262       .  A
N1078      O1082   1.262       .  A
C1083      C1084   1.400       .  A
C1083      C1088   1.394       .  A
C1083      H1090   1.084       .  S
C1084      C1085   1.416       .  A
C1085      C1086   1.410       .  A
C1085      N1092   1.439       .  S
C1086      C1087   1.408       .  A
C1086      H1091   1.083       .  S
C1087      C1088   1.412       .  A
C1088      N1089   1.427       .  S
N1089      O1093   1.261       .  A
N1089      O1094   1.262       .  A
N1092      O1095   1.262       .  A
N1092      O1096   1.263       .  A
C1097      C1098   1.404       .  A
C1097      C1102   1.413       .  A
C1097      H1104   1.083       .  S
C1098      C1099   1.414       .  A
C1099      C1100   1.395       .  A
C1099      N1106   1.438       .  S
C1100      C1101   1.400       .  A
C1100      H1105   1.084       .  S
C1101      C1102   1.418       .  A
C1102      N1103   1.438       .  S
N1103      O1107   1.263       .  A
N1103      O1108   1.262       .  A
N1106      O1109   1.262       .  A
N1106      O1110   1.263       .  A
C1111      C1112   1.405       .  A
C1111      C1116   1.397       .  A
C1111      H1118   1.083       .  S
C1112      C1113   1.418       .  A
C1113      C1114   1.409       .  A
C1113      N1120   1.433       .  S
C1114      C1115   1.405       .  A
C1114      H1119   1.084       .  S
C1115      C1116   1.414       .  A
C1116      N1117   1.438       .  S
N1117      O1121   1.263       .  A
N1117      O1122   1.263       .  A
N1120      O1123   1.262       .  A
N1120      O1124   1.262       .  A
C1125      C1126   1.401       .  A
C1125      C1130   1.406       .  A
C1125      H1132   1.084       .  S
C1126      C1127   1.413       .  A
C1127      C1128   1.406       .  A
C1127      N1134   1.443       .  S
C1128      C1129   1.403       .  A
C1128      H1133   1.084       .  S
C1129      C1130   1.418       .  A
C1130      N1131   1.446       .  S
N1131      O1135   1.263       .  A
N1131      O1136   1.262       .  A
N1134      O1137   1.262       .  A
N1134      O1138   1.263       .  A
C1139      C1140   1.407       .  A
C1139      C1144   1.412       .  A
C1139      H1146   1.083       .  S
C1140      C1141   1.414       .  A
C1141      C1142   1.394       .  A
C1141      N1148   1.436       .  S
C1142      C1143   1.406       .  A
C1142      H1147   1.083       .  S
C1143      C1144   1.419       .  A
C1144      N1145   1.434       .  S
N1145      O1149   1.262       .  A
N1145      O1150   1.262       .  A
N1148      O1151   1.263       .  A
N1148      O1152   1.262       .  A
C1153      C1154   1.406       .  A
C1153      C1158   1.402       .  A
C1153      H1160   1.084       .  S
C1154      C1155   1.418       .  A
C1155      C1156   1.402       .  A
C1155      N1162   1.437       .  S
C1156      C1157   1.402       .  A
C1156      H1161   1.084       .  S
C1157      C1158   1.413       .  A
C1158      N1159   1.439       .  S
N1159      O1163   1.263       .  A
N1159      O1164   1.261       .  A
N1162      O1165   1.263       .  A
N1162      O1166   1.263       .  A
C1167      C1168   1.403       .  A
C1167      C1172   1.393       .  A
C1167      H1174   1.083       .  S
C1168      C1169   1.420       .  A
C1169      C1170   1.409       .  A
C1169      N1176   1.436       .  S
C1170      C1171   1.401       .  A
C1170      H1175   1.084       .  S
C1171      C1172   1.408       .  A
C1172      N1173   1.431       .  S
N1173      O1177   1.262       .  A
N1173      O1178   1.261       .  A
N1176      O1179   1.263       .  A
N1176      O1180   1.263       .  A
C1181      C1182   1.408       .  A
C1181      C1186   1.401       .  A
C1181      H1188   1.080       .  S
C1182      C1183   1.421       .  A
C1183      C1184   1.404       .  A
C1183      N1190   1.438       .  S
C1184      C1185   1.399       .  A
C1184      H1189   1.084       .  S
C1185      C1186   1.411       .  A
C1186      N1187   1.442       .  S
N1187      O1191   1.263       .  A
N1187      O1192   1.263       .  A
N1190      O1193   1.263       .  A
N1190      O1194   1.262       .  A
C1195      C1196   1.405       .  A
C1195      C1200   1.405       .  A
C1195      H1202   1.084       .  S
C1196      C1197   1.414       .  A
C1197      C1198   1.403       .  A
C1197      N1204   1.440       .  S
C1198      C1199   1.406       .  A
C1198      H1203   1.083       .  S
C1199      C1200   1.414       .  A
C1200      N1201   1.438       .  S
N1201      O1205   1.263       .  A
N1201      O1206   1.263       .  A
N1204      O1207   1.263       .  A
N1204      O1208   1.263       .  A
C1209      C1210   1.409       .  A
C1209      C1214   1.401       .  A
C1209      H1216   1.081       .  S
C1210      C1211   1.420       .  A
C1211      C1212   1.407       .  A
C1211      N1218   1.438       .  S
C1212      C1213   1.402       .  A
C1212      H1217   1.084       .  S
C1213      C1214   1.411       .  A
C1214      N1215   1.442       .  S
N1215      O1219   1.263       .  A
N1215      O1220   1.263       .  A
N1218      O1221   1.263       .  A
N1218      O1222   1.262       .  A
C1223      C1224   1.406       .  A
C1223      C1228   1.407       .  A
C1223      H1230   1.083       .  S
C1224      C1225   1.417       .  A
C1225      C1226   1.400       .  A
C1225      N1232   1.436       .  S
C1226      C1227   1.401       .  A
C1226      H1231   1.084       .  S
C1227      C1228   1.417       .  A
C1228      N1229   1.440       .  S
N1229      O1233   1.263       .  A
N1229      O1234   1.261       .  A
N1232      O1235   1.263       .  A
N1232      O1236   1.263       .  A
C1237      C1238   1.399       .  A
C1237      C1242   1.400       .  A
C1237      H1244   1.084       .  S
C1238      C1239   1.413       .  A
C1239      C1240   1.407       .  A
C1239      N1246   1.442       .  S
C1240      C1241   1.412       .  A
C1240      H1245   1.083       .  S
C1241      C1242   1.421       .  A
C1242      N1243   1.433       .  S
N1243      O1247   1.262       .  A
N1243      O1248   1.263       .  A
N1246      O1249   1.263       .  A
N1246      O1250   1.263       .  A
C1251      C1252   1.402       .  A
C1251      C1256   1.408       .  A
C1251      H1258   1.084       .  S
C1252      C1253   1.408       .  A
C1253      C1254   1.397       .  A
C1253      N1260   1.433       .  S
C1254      C1255   1.407       .  A
C1254      H1259   1.080       .  S
C1255      C1256   1.421       .  A
C1256      N1257   1.439       .  S
N1257      O1261   1.263       .  A
N1257      O1262   1.263       .  A
N1260      O1263   1.261       .  A
N1260      O1264   1.262       .  A
C1265      C1266   1.404       .  A
C1265      C1270   1.396       .  A
C1265      H1272   1.082       .  S
C1266      C1267   1.420       .  A
C1267      C1268   1.409       .  A
C1267      N1274   1.435       .  S
C1268      C1269   1.402       .  A
C1268      H1273   1.084       .  S
C1269      C1270   1.413       .  A
C1270      N1271   1.437       .  S
N1271      O1275   1.263       .  A
N1271      O1276   1.260       .  A
N1274      O1277   1.263       .  A
N1274      O1278   1.263       .  A
C1279      C1280   1.401       .  A
C1279      C1284   1.397       .  A
C1279      H1286   1.085       .  S
C1280      C1281   1.421       .  A
C1281      C1282   1.410       .  A
C1281      N1288   1.448       .  S
C1282      C1283   1.406       .  A
C1282      H1287   1.083       .  S
C1283      C1284   1.414       .  A
C1284      N1285   1.437       .  S
N1285      O1289   1.263       .  A
N1285      O1290   1.263       .  A
N1288      O1291   1.261       .  A
N1288      O1292   1.263       .  A
C1293      C1294   1.402       .  A
C1293      C1298   1.398       .  A
C1293      H1300   1.084       .  S
C1294      C1295   1.420       .  A
C1295      C1296   1.410       .  A
C1295      N1302   1.445       .  S
C1296      C1297   1.405       .  A
C1296      H1301   1.083       .  S
C1297      C1298   1.414       .  A
C1298      N1299   1.438       .  S
N1299      O1303   1.263       .  A
N1299      O1304   1.263       .  A
N1302      O1305   1.261       .  A
N1302      O1306   1.263       .  A
C1307      C1308   1.403       .  A
C1307      C1312   1.401       .  A
C1307      H1314   1.084       .  S
C1308      C1309   1.411       .  A
C1309      C1310   1.403       .  A
C1309      N1316   1.432       .  S
C1310      C1311   1.406       .  A
C1310      H1315   1.084       .  S
C1311      C1312   1.417       .  A
C1312      N1313   1.438       .  S
N1313      O1317   1.263       .  A
N1313      O1318   1.263       .  A
N1316      O1319   1.261       .  A
N1316      O1320   1.262       .  A
C1321      C1322   1.402       .  A
C1321      C1326   1.399       .  A
C1321      H1328   1.084       .  S
C1322      C1323   1.416       .  A
C1323      C1324   1.408       .  A
C1323      N1330   1.441       .  S
C1324      C1325   1.405       .  A
C1324      H1329   1.083       .  S
C1325      C1326   1.416       .  A
C1326      N1327   1.437       .  S
N1327      O1331   1.263       .  A
N1327      O1332   1.263       .  A
N1330      O1333   1.263       .  A
N1330      O1334   1.263       .  A
C1335      C1336   1.416       .  A
C1335      C1340   1.409       .  A
C1335      H1342   1.081       .  S
C1336      C1337   1.425       .  A
C1337      C1338   1.399       .  A
C1337      N1344   1.427       .  S
C1338      C1339   1.396       .  A
C1338      H1343   1.085       .  S
C1339      C1340   1.411       .  A
C1340      N1341   1.443       .  S
N1341      O1345   1.263       .  A
N1341      O1346   1.263       .  A
N1344      O1347   1.263       .  A
N1344      O1348   1.261       .  A
C1349      C1350   1.402       .  A
C1349      C1354   1.396       .  A
C1349      H1356   1.085       .  S
C1350      C1351   1.419       .  A
C1351      C1352   1.413       .  A
C1351      N1358   1.447       .  S
C1352      C1353   1.409       .  A
C1352      H1357   1.082       .  S
C1353      C1354   1.415       .  A
C1354      N1355   1.436       .  S
N1355      O1359   1.263       .  A
N1355      O1360   1.263       .  A
N1358      O1361   1.262       .  A
N1358      O1362   1.263       .  A
C1363      C1364   1.395       .  A
C1363      C1368   1.396       .  A
C1363      H1370   1.085       .  S
C1364      C1365   1.413       .  A
C1365      C1366   1.410       .  A
C1365      N1372   1.444       .  S
C1366      C1367   1.411       .  A
C1366      H1371   1.080       .  S
C1367      C1368   1.421       .  A
C1368      N1369   1.429       .  S
N1369      O1373   1.263       .  A
N1369      O1374   1.262       .  A
N1372      O1375   1.262       .  A
N1372      O1376   1.263       .  A
C1377      C1378   1.407       .  A
C1377      C1382   1.399       .  A
C1377      H1384   1.083       .  S
C1378      C1379   1.419       .  A
C1379      C1380   1.406       .  A
C1379      N1386   1.438       .  S
C1380      C1381   1.401       .  A
C1380      H1385   1.084       .  S
C1381      C1382   1.411       .  A
C1382      N1383   1.441       .  S
N1383      O1387   1.263       .  A
N1383      O1388   1.263       .  A
N1386      O1389   1.263       .  A
N1386      O1390   1.262       .  A
C1391      C1392   1.424       .  A
C1391      C1396   1.405       .  A
C1391      H1398   1.076       .  S
C1392      C1393   1.437       .  A
C1393      C1394   1.400       .  A
C1393      N1400   1.425       .  S
C1394      C1395   1.390       .  A
C1394      H1399   1.086       .  S
C1395      C1396   1.404       .  A
C1396      N1397   1.443       .  S
N1397      O1401   1.263       .  A
N1397      O1402   1.263       .  A
N1400      O1403   1.263       .  A
N1400      O1404   1.262       .  A
