geometry optimzed in LAMMPS
_audit_creation_date              2020-12-01 
_audit_creation_method            'lammps2cif' 
_symmetry_space_group_name_H-M    'P1' 
_symmetry_Int_Tables_number       1 
_symmetry_cell_setting            triclinic 
loop_ 
_symmetry_equiv_pos_as_xyz 
  x,y,z 
_cell_length_a                    31.16415767 
_cell_length_b                    43.453128074352115 
_cell_length_c                    62.748085886778334 
_cell_angle_alpha                 88.37071940078806 
_cell_angle_beta                  90.27522460374537 
_cell_angle_gamma                 119.41708690858492 
loop_ 
_atom_site_label 
_atom_site_type_symbol 
_atom_site_fract_x 
_atom_site_fract_y 
_atom_site_fract_z 
_atom_site_charge 
C1          C  0.07395282  0.13909984  0.09678120     0.02700
C2          C  0.02775281  0.13750013  0.09714235    -0.13500
C3          C  0.48881931  0.11377994  0.08460017     0.00200
C4          C  0.49671740  0.09197035  0.07119359    -0.12000
C5          C  0.04272393  0.09309130  0.07064538     0.02700
C6          C  0.08148924  0.11688166  0.08332529    -0.11400
H7          H  0.02184979  0.15466730  0.10749279     0.08300
H8          H  0.46760354  0.07458436  0.06069564     0.05800
H9          H  0.11700485  0.11803777  0.08274103     0.05600
C10         C  0.34956810  0.20533005  0.09510872     0.02700
C11         C  0.36251869  0.17896949  0.09679786    -0.13500
C12         C  0.39851594  0.17951038  0.08347176     0.00200
C13         C  0.42379689  0.20730383  0.06884102    -0.12000
C14         C  0.41154566  0.23416104  0.06658858     0.02700
C15         C  0.37385182  0.23312702  0.07959319    -0.11400
H16         H  0.34305853  0.15692015  0.10803856     0.08300
H17         H  0.45135926  0.20712590  0.05842198     0.05800
H18         H  0.36493937  0.25425315  0.07820105     0.05600
C19         C  0.22119480  0.03167898  0.06793239     0.02700
C20         C  0.20568579  0.33992582  0.08470182    -0.13500
C21         C  0.24074083  0.33861525  0.09809664     0.00200
C22         C  0.29163813  0.02916936  0.09496277    -0.12000
C23         C  0.30679186  0.05481763  0.07860486     0.02700
C24         C  0.27153040  0.05571139  0.06495719    -0.11400
H25         H  0.16714176  0.32044408  0.08693082     0.08300
H26         H  0.31858655  0.02856857  0.10572174     0.05800
H27         H  0.28336235  0.07595984  0.05239697     0.05600
C28         C  0.44209975  0.11441442  0.08356389     0.79800
N29         N  0.44316965  0.14606148  0.08397777    -0.78500
C30         C  0.40071621  0.14716914  0.08200666     0.82200
N31         N  0.35787959  0.11726971  0.07946450    -0.78500
C32         C  0.35598764  0.08578071  0.07905717     0.82300
N33         N  0.39818858  0.08397112  0.08130337    -0.80200
C34         C  0.41176273  0.31935330  0.93080760     0.02700
C35         C  0.42215078  0.01582649  0.91714303    -0.13500
C36         C  0.38726289  0.01391960  0.90197473     0.00200
C37         C  0.34210825  0.31547873  0.90097137    -0.12000
C38         C  0.33202897  0.28620981  0.91435051     0.02700
C39         C  0.36670719  0.28844479  0.92912542    -0.11400
H40         H  0.45758918  0.03964498  0.91800969     0.08300
H41         H  0.31503262  0.31342265  0.88934872     0.05800
H42         H  0.35848789  0.26569286  0.93943513     0.05600
C43         C  0.21444101  0.09827115  0.93166418     0.02700
C44         C  0.21356409  0.13033338  0.93133026    -0.13500
C45         C  0.24044855  0.15669485  0.91579817     0.00200
C46         C  0.26756154  0.15037532  0.90048044    -0.12000
C47         C  0.26709256  0.11789026  0.90046644     0.02700
C48         C  0.24071884  0.09188354  0.91609277    -0.11400
H49         H  0.19216917  0.13476391  0.94320645     0.08300
H50         H  0.28884789  0.17064192  0.88847486     0.05800
H51         H  0.24056104  0.06687333  0.91611086     0.05600
C52         C  0.19872845  0.22344299  0.91635630     0.79800
N53         N  0.24222692  0.25398417  0.91491996    -0.78500
C54         C  0.28499935  0.25316425  0.91377153     0.82200
N55         N  0.28425907  0.22158895  0.91421161    -0.78500
C56         C  0.24083238  0.19082953  0.91561612     0.82300
N57         N  0.19798480  0.19183479  0.91663591    -0.80200
C58         C  0.10012965  0.24745829  0.92887909     0.02700
C59         C  0.06535685  0.22833750  0.91337193    -0.13500
C60         C  0.07423387  0.20753264  0.89922478     0.00200
C61         C  0.11771609  0.20577986  0.90063290    -0.12000
C62         C  0.15267667  0.22477271  0.91592592     0.02700
C63         C  0.14410945  0.24580520  0.92998493    -0.11400
H64         H  0.03110130  0.22906013  0.91260354     0.08300
H65         H  0.12444649  0.18960926  0.88975537     0.05800
H66         H  0.17123327  0.26040297  0.94195459     0.05600
Zr67       Zr  0.06037882  0.33299938  0.04151880     2.17500
O68         O  0.05344656  0.31358530  0.07888290    -0.51800
O69         O  0.05598283  0.04677490  0.05983911    -0.75000
O70         O  0.13923746  0.01431389  0.05804050    -0.81800
O71         O  0.42386081  0.26329702  0.03264793    -0.83500
O72         O  0.20068592  0.04405756  0.03367209    -0.79100
O73         O  0.48622230  0.28378052  0.05664078    -0.90800
O74         O  0.04783597  0.08265115  0.03509197    -0.76700
O75         O  0.10944466  0.05278088  0.02171304    -0.86200
O76         O  0.00344811  0.00977779  0.02152673    -0.85900
O77         O  0.11333236  0.32040549  0.01985211    -0.72700
O78         O  0.01605568  0.28255770  0.01964167    -0.84800
Zr79       Zr  0.06466642  0.00146481  0.95678800     2.26400
Zr80       Zr  0.16186690  0.04093235  0.99960056     2.06300
Zr81       Zr  0.46128170  0.29382908  0.99862226     2.10000
Zr82       Zr  0.05284595  0.06218168  0.00078270     1.78800
O83         O  0.40675184  0.23280815  0.98902910    -0.93600
O84         O  0.12040498  0.12289189  0.00110542    -0.41400
O85         O  0.01128936  0.01288316  0.97857350    -0.78100
O86         O  0.10665751  0.05262531  0.97866188    -0.96700
O87         O  0.11992222  0.32386586  0.97720084    -0.90000
O88         O  0.01316617  0.28162968  0.97646326    -0.92900
C89         C  0.05039400  0.07318226  0.05425913     1.00900
C90         C  0.44149282  0.26314753  0.05122301     1.13800
C91         C  0.18487031  0.03068247  0.05240905     1.04600
O92         O  0.21979989  0.10210412  0.00755825    -0.95000
O93         O  0.19991410  0.07192464  0.96609628    -0.90800
O94         O  0.14020686  0.04856331  0.94099449    -0.83900
C95         C  0.18367645  0.07052881  0.94709575     1.11200
O96         O  0.05539584  0.23261600  0.02899987    -0.97000
Zr97       Zr  0.06889568  0.27116873  0.99771958     1.88900
O98         O  0.07228461  0.28716504  0.93945453    -0.73700
O99         O  0.22666539  0.02680678  0.99202773    -0.52900
O100        O  0.14117208  0.26500555  0.00542779    -0.97600
O101        O  0.00681659  0.21064240  0.98978034    -0.54800
O102        O  0.09577740  0.25999928  0.96451489    -0.74200
C103        C  0.08879224  0.26625285  0.94520171     0.98200
O104        O  0.05784264  0.00869062  0.91836740    -0.63000
O105        O  0.39166815  0.30332932  0.00511214    -0.57800
O106        O  0.99197955  0.33418216  0.94135880    -0.94500
O107        O  0.42919373  0.30261570  0.96460973    -0.92900
O108        O  0.47772822  0.06608852  0.99957800    -0.93300
O109        O  0.04668561  0.09653866  0.97077193    -0.92100
C110        C  0.44675487  0.31885205  0.94652256     1.17000
H111        H  0.48088501  0.01272607  0.03037675     0.32900
H112        H  0.12318912  0.07468005  0.97062660     0.43800
H113        H  0.99396483  0.26256109  0.96702631     0.37300
H114        H  0.13365261  0.31358273  0.02811871     0.33800
H115        H  0.10464416  0.13720299  0.00444282     0.25600
H116        H  0.25715204  0.04723473  0.99719098     0.31500
H117        H  0.13645409  0.24432760  0.99735861     0.37400
H118        H  0.95380556  0.04469708  0.99184419     0.31900
H119        H  0.36217913  0.27989042  0.00337064     0.30800
H120        H  0.37449451  0.23143634  0.98646039     0.32500
H121        H  0.02511667  0.19738096  0.98952013     0.31400
H122        H  0.05498114  0.08732474  0.95810382     0.35400
H123        H  0.06855770  0.03404010  0.91567521     0.28200
H124        H  0.07498609  0.33497114  0.08693606     0.32400
H125        H  0.06333898  0.21429994  0.02453004     0.35200
H126        H  0.39237836  0.30770766  0.02054186     0.27900
H127        H  0.08389504  0.00525647  0.91172755     0.40700
H128        H  0.20943579  0.11625586  0.99848659     0.30800
H129        H  0.13928364  0.12392970  0.01406181     0.38400
H130        H  0.50056735  0.21162601  0.97407087     0.30200
H131        H  0.22103987  0.34083428  0.00276010     0.30300
H132        H  0.06944268  0.29873564  0.07988495     0.30600
C133        C  0.41100709  0.27804228  0.73248613     0.02700
C134        C  0.45835780  0.30700402  0.73266010    -0.13500
C135        C  0.49388570  0.30734004  0.74630500     0.00200
C136        C  0.48285746  0.27815645  0.75973537    -0.12000
C137        C  0.43561028  0.24849781  0.76005230     0.02700
C138        C  0.39917095  0.24848371  0.74643225    -0.11400
H139        H  0.46715685  0.99650518  0.72265957     0.08300
H140        H  0.51064386  0.27905535  0.77057921     0.05800
H141        H  0.36229640  0.22596419  0.74672841     0.05600
C142        C  0.22741484  0.01315552  0.73715862     0.02700
C143        C  0.26429316  0.03611922  0.75082457    -0.13500
C144        C  0.25485486  0.05739319  0.76442396     0.00200
C145        C  0.20920750  0.05595551  0.76408936    -0.12000
C146        C  0.17274776  0.03355049  0.75032742     0.02700
C147        C  0.18142460  0.01168183  0.73715974    -0.11400
H148        H  0.30017313  0.03781229  0.75063592     0.08300
H149        H  0.20222123  0.07266981  0.77440321     0.05800
H150        H  0.15392260  0.32916306  0.72547604     0.05600
C151        C  0.10813140  0.15785752  0.73032949     0.02700
C152        C  0.08255843  0.16460341  0.74609943    -0.13500
C153        C  0.05863708  0.13962093  0.76257887     0.00200
C154        C  0.05912915  0.10760826  0.76298566    -0.12000
C155        C  0.08551458  0.10115566  0.74744956     0.02700
C156        C  0.11050507  0.12648171  0.73122932    -0.11400
H157        H  0.08187389  0.18932356  0.74572070     0.08300
H158        H  0.54040530  0.08844636  0.77574353     0.05800
H159        H  0.13145229  0.12173141  0.71928425     0.05600
C160        C  0.12680569  0.03466690  0.74904998     0.79800
N161        N  0.12784493  0.06631553  0.74868798    -0.78500
C162        C  0.08521067  0.06744115  0.74781610     0.82200
N163        N  0.04178081  0.03704301  0.74728890    -0.78500
C164        C  0.04068403  0.00548559  0.74751073     0.82300
N165        N  0.08319646  0.00422615  0.74841251    -0.80200
Zr166      Zr  0.41514092  0.13731093  0.78865369     2.17500
O167        O  0.42067637  0.12921058  0.75058070    -0.51800
O168        O  0.42110744  0.19067453  0.77066489    -0.75000
O169        O  0.33681464  0.09662024  0.77314827    -0.81800
O170        O  0.04732665  0.15405188  0.79718226    -0.83500
O171        O  0.27690890  0.08181489  0.79824704    -0.79100
O172        O  0.48630344  0.13829650  0.77283002    -0.90800
O173        O  0.42746408  0.22909599  0.79582024    -0.76700
O174        O  0.36736326  0.15424606  0.80966186    -0.86200
O175        O  0.47394182  0.18551477  0.80861659    -0.85900
O176        O  0.36381528  0.08550379  0.81074868    -0.72700
O177        O  0.45868472  0.11476791  0.80989742    -0.84800
Zr178      Zr  0.41571021  0.12784875  0.87391123     2.26400
Zr179      Zr  0.31675373  0.10344771  0.83210743     2.06300
Zr180      Zr  0.01605003  0.16260981  0.83063010     2.10000
Zr181      Zr  0.42611139  0.20176187  0.83008571     1.78800
O182        O  0.07705265  0.14388236  0.83705661    -0.93600
O183        O  0.36066461  0.21703085  0.83133718    -0.41400
O184        O  0.46814948  0.17924354  0.85204629    -0.78100
O185        O  0.37385211  0.15221827  0.85265751    -0.96700
O186        O  0.35843311  0.07983411  0.85356496    -0.90000
O187        O  0.46495954  0.11192878  0.85298707    -0.92900
C188        C  0.42576060  0.22037451  0.77640501     1.00900
C189        C  0.02955460  0.14525802  0.77842801     1.13800
C190        C  0.29179885  0.08052776  0.77941604     1.04600
O191        O  0.25844826  0.12485118  0.82620932    -0.95000
O192        O  0.28031223  0.10478111  0.86591752    -0.90800
O193        O  0.34076220  0.12043771  0.89059553    -0.83900
C194        C  0.29721449  0.11281128  0.88483085     1.11200
O195        O  0.40920626  0.03071544  0.80206912    -0.97000
Zr196      Zr  0.40771133  0.06439064  0.83221994     1.88900
O197        O  0.40811002  0.07355304  0.89162955    -0.73700
O198        O  0.25117838  0.04335176  0.83996093    -0.52900
O199        O  0.33128348  0.00873642  0.82827569    -0.97600
O200        O  0.47610187  0.05208372  0.83330456    -0.54800
O201        O  0.39490764  0.03374440  0.86627916    -0.74200
C202        C  0.39828233  0.04257400  0.88574234     0.98200
O203        O  0.42680684  0.14088482  0.91178654    -0.63000
O204        O  0.08051570  0.22267832  0.82175725    -0.57800
O205        O  0.99238518  0.17180184  0.88896350    -0.94500
O206        O  0.05356121  0.18451240  0.86488104    -0.92900
O207        O  0.50482502  0.25639956  0.82894571    -0.93300
O208        O  0.43429572  0.23891128  0.85989520    -0.92100
C209        C  0.03776438  0.18667128  0.88333217     1.17000
H210        H  0.49665697  0.20480977  0.79937873     0.32900
H211        H  0.35783248  0.16183773  0.86116452     0.43800
H212        H  0.48461307  0.10524569  0.86186824     0.37300
H213        H  0.34305540  0.06478996  0.80279479     0.33800
H214        H  0.37698736  0.24257291  0.82746814     0.25600
H215        H  0.22036486  0.04436854  0.83791902     0.31500
H216        H  0.33603496  0.32460531  0.83896589     0.37400
H217        H  0.49729973  0.27449409  0.82290144     0.31900
H218        H  0.07866818  0.23714405  0.83325197     0.30800
H219        H  0.10793888  0.16582688  0.84012922     0.32500
H220        H  0.47931348  0.04674987  0.84847566     0.31400
H221        H  0.42763409  0.22334568  0.87271590     0.35400
H222        H  0.41590705  0.15849219  0.91397641     0.28200
H223        H  0.39765665  0.13569583  0.74348797     0.32400
H224        H  0.40831250  0.34168583  0.80936814     0.35200
H225        H  0.11172404  0.22245410  0.82434305     0.27900
H226        H  0.40189323  0.11912651  0.91937937     0.40700
H227        H  0.27025098  0.14576997  0.83522877     0.30800
H228        H  0.33970022  0.20536174  0.81894641     0.38400
H229        H  0.50574282  0.07519997  0.83016365     0.30200
H230        H  0.25209031  0.02935701  0.82796712     0.30300
H231        H  0.40594417  0.10341215  0.74874478     0.30600
C232        C  0.24836538  0.12716330  0.56355007     0.02700
C233        C  0.29471647  0.12880189  0.56304802    -0.13500
C234        C  0.33323473  0.15201785  0.57616676     0.00200
C235        C  0.32517902  0.17383840  0.58957693    -0.12000
C236        C  0.27910174  0.17207626  0.59043042     0.02700
C237        C  0.24063741  0.14870877  0.57749623    -0.11400
H238        H  0.30074815  0.11197320  0.55246415     0.08300
H239        H  0.35404370  0.19095226  0.60025850     0.05800
H240        H  0.20498057  0.14731165  0.57829708     0.05600
C241        C  0.10000370  0.23728536  0.59596405     0.02700
C242        C  0.11667825  0.26337842  0.57963304    -0.13500
C243        C  0.08382299  0.26363975  0.56460351     0.00200
C244        C  0.03356366  0.23788666  0.56583613    -0.12000
C245        C  0.01654037  0.21135240  0.58190051     0.02700
C246        C  0.05004035  0.21141376  0.59698537    -0.11400
H247        H  0.15488217  0.28410318  0.57890202     0.08300
H248        H  0.00816468  0.23804844  0.55402343     0.05800
H249        H  0.03731570  0.19059574  0.60921676     0.05600
C250        C  0.46294208  0.05511588  0.56595680     0.02700
C251        C  0.95358291  0.08310308  0.56568548    -0.13500
C252        C  0.42226878  0.08503432  0.58086046     0.00200
C253        C  0.39868032  0.05770202  0.59617423    -0.12000
C254        C  0.40750002  0.02886039  0.59675968     0.02700
C255        C  0.43978573  0.02759823  0.58157792    -0.11400
H256        H  0.97273668  0.10491756  0.55426111     0.08300
H257        H  0.37428624  0.05917399  0.60786190     0.05800
H258        H  0.44811396  0.33964542  0.58236073     0.05600
C259        C  0.38008368  0.15120772  0.57755050     0.79800
N260        N  0.42443411  0.18180937  0.57854259    -0.78500
C261        C  0.46678856  0.18014735  0.58105606     0.82200
N262        N  0.46432482  0.14831663  0.58260205    -0.78500
C263        C  0.42089378  0.11807395  0.58167725     0.82300
N264        N  0.37862077  0.11937134  0.57900516    -0.80200
Zr265      Zr  0.25522282  0.25777391  0.70648853     2.17500
O266        O  0.24532094  0.24071873  0.74437243    -0.51800
O267        O  0.25020411  0.30481176  0.72544917    -0.75000
O268        O  0.33016904  0.26475623  0.72306168    -0.81800
O269        O  0.11977871  0.18621231  0.69653512    -0.83500
O270        O  0.39201436  0.29489761  0.69887840    -0.79100
O271        O  0.18244888  0.20638502  0.72034472    -0.90800
O272        O  0.23456905  0.00435340  0.70136667    -0.76700
O273        O  0.30531571  0.31164508  0.68697034    -0.86200
O274        O  0.19815123  0.26893432  0.68692532    -0.85900
O275        O  0.30603966  0.24453237  0.68378145    -0.72700
O276        O  0.21019662  0.20843405  0.68392733    -0.84800
Zr277      Zr  0.25838325  0.26347802  0.62158512     2.26400
Zr278      Zr  0.35666991  0.29900248  0.66439308     2.06300
Zr279      Zr  0.15505381  0.22056381  0.66373309     2.10000
Zr280      Zr  0.24791838  0.32207356  0.66685702     1.78800
O281        O  0.09583100  0.16014602  0.65476457    -0.93600
O282        O  0.31304986  0.04958772  0.67065319    -0.41400
O283        O  0.20442370  0.27414257  0.64361051    -0.78100
O284        O  0.30178114  0.31285675  0.64462010    -0.96700
O285        O  0.31286193  0.25010804  0.64131001    -0.90000
O286        O  0.20661436  0.20939171  0.64061358    -0.92900
C287        C  0.23825189  0.32847314  0.72034552     1.00900
C288        C  0.13820202  0.18543007  0.71474975     1.13800
C289        C  0.37552670  0.27959786  0.71732826     1.04600
O290        O  0.41883165  0.02452422  0.67414015    -0.95000
O291        O  0.39458115  0.99908236  0.63077079    -0.90800
O292        O  0.33421431  0.31190789  0.60625411    -0.83900
C293        C  0.37798174  0.99913913  0.61186587     1.11200
O294        O  0.25937769  0.15817489  0.69033920    -0.97000
Zr295      Zr  0.26073314  0.19668650  0.66097626     1.88900
O296        O  0.26616669  0.21818506  0.60235191    -0.73700
O297        O  0.42152083  0.28528247  0.65604155    -0.52900
O298        O  0.33574543  0.19225495  0.66161290    -0.97600
O299        O  0.19037870  0.13710794  0.65924368    -0.54800
O300        O  0.26919474  0.17902758  0.62620584    -0.74200
C301        C  0.27022681  0.19085412  0.60727640     0.98200
O302        O  0.25165366  0.27786433  0.58420636    -0.63000
O303        O  0.09098239  0.23448525  0.67346223    -0.57800
O304        O  0.18067132  0.25339753  0.60670135    -0.94500
O305        O  0.11762529  0.22252148  0.63021490    -0.92900
O306        O  0.17333340  0.32684027  0.66431466    -0.93300
O307        O  0.25185910  0.02659340  0.63684041    -0.92100
C308        C  0.13483718  0.23744636  0.61194018     1.17000
H309        H  0.17500130  0.27077749  0.69626543     0.32900
H310        H  0.31885935  0.00173072  0.63699655     0.43800
H311        H  0.18704628  0.19074579  0.63098130     0.37300
H312        H  0.32505322  0.23570383  0.69123327     0.33800
H313        H  0.29550501  0.06258031  0.67428112     0.25600
H314        H  0.45199930  0.30555542  0.66134438     0.31500
H315        H  0.32735929  0.17020231  0.65421132     0.37400
H316        H  0.15730007  0.98047716  0.65103459     0.31900
H317        H  0.09550234  0.25382780  0.66340430     0.30800
H318        H  0.06352565  0.15934325  0.65475748     0.32500
H319        H  0.18128303  0.13370059  0.64401354     0.31400
H320        H  0.24904655  0.01285660  0.62407202     0.35400
H321        H  0.26181481  0.30334848  0.58347772     0.28200
H322        H  0.26897839  0.26207406  0.75196253     0.32400
H323        H  0.25969756  0.13794673  0.68360923     0.35200
H324        H  0.05982021  0.21385829  0.66902339     0.27900
H325        H  0.27599210  0.94136835  0.57622792     0.40700
H326        H  0.40143794  0.03842291  0.67379007     0.30800
H327        H  0.33023764  0.04939064  0.68391828     0.38400
H328        H  0.16302814  0.13854630  0.66623386     0.30200
H329        H  0.41547334  0.26532712  0.66590486     0.30300
H330        H  0.25786541  0.22384924  0.74633774     0.30600
C331        C  0.42150266  0.27174351  0.42953732     0.02700
C332        C  0.43005837  0.25100478  0.41523444    -0.13500
C333        C  0.39169827  0.22761721  0.40221812     0.00200
C334        C  0.34537298  0.22534309  0.40323949    -0.12000
C335        C  0.33679564  0.24623940  0.41715732     0.02700
C336        C  0.37482520  0.26920907  0.43039472    -0.11400
H337        H  0.46593861  0.25279251  0.41436657     0.08300
H338        H  0.31651376  0.20819039  0.39256555     0.05800
H339        H  0.36817445  0.28529131  0.44136683     0.05600
C340        C  0.07053471  0.16364759  0.39820910     0.02700
C341        C  0.05414570  0.13875097  0.41529552    -0.13500
C342        C  0.08794768  0.13755861  0.42947188     0.00200
C343        C  0.13835415  0.16122808  0.42686697    -0.12000
C344        C  0.15494655  0.18690699  0.41046837     0.02700
C345        C  0.12100171  0.18773804  0.39593874    -0.11400
H346        H  0.51704459  0.12093859  0.41796718     0.08300
H347        H  0.16433929  0.16061111  0.43819838     0.05800
H348        H  0.13376093  0.20805269  0.38339361     0.05600
C349        C  0.19553432  0.00328658  0.42774883     0.02700
C350        C  0.22182067  0.03191309  0.41307060    -0.13500
C351        C  0.26188909  0.03415955  0.40137530     0.00200
C352        C  0.27373651  0.34030770  0.40334801    -0.12000
C353        C  0.24641689  0.31167251  0.41724108     0.02700
C354        C  0.20947938  0.31090036  0.43000174    -0.11400
H355        H  0.21261047  0.05286330  0.41138374     0.08300
H356        H  0.30187822  0.34032703  0.39322542     0.05800
H357        H  0.18874371  0.28843193  0.44081657     0.05600
C358        C  0.28990726  0.24658509  0.41641481     0.79800
N359        N  0.29077625  0.27809481  0.41738813    -0.78500
C360        C  0.24830278  0.27918865  0.41570378     0.82200
N361        N  0.20549031  0.24931270  0.41288809    -0.78500
C362        C  0.20386929  0.21794979  0.41179066     0.82300
N363        N  0.24616652  0.21619892  0.41374504    -0.80200
Zr364      Zr  0.07586085  0.03062569  0.45449911     2.17500
O365        O  0.07812642  0.04002617  0.41580392    -0.51800
O366        O  0.00169175  0.98228962  0.43878104    -0.75000
O367        O  0.13530792  0.01871802  0.43701889    -0.81800
O368        O  0.05871030  0.11185042  0.46379932    -0.83500
O369        O  0.15570624  0.32135185  0.46166712    -0.79100
O370        O  0.07944415  0.08340419  0.43941788    -0.90800
O371        O  0.44455657  0.28855660  0.46445392    -0.76700
O372        O  0.05022887  0.97824544  0.47577159    -0.86200
O373        O  0.00995342  0.02673868  0.47573726    -0.85900
O374        O  0.14795287  0.04245127  0.47508971    -0.72700
O375        O  0.10856995  0.08273852  0.47544850    -0.84800
Zr376      Zr  0.09024605  0.03574368  0.53919084     2.26400
Zr377      Zr  0.12241008  0.32305066  0.49671599     2.06300
Zr378      Zr  0.04345592  0.07809518  0.49740286     2.10000
Zr379      Zr  0.48577839  0.30940083  0.49749215     1.78800
O380        O  0.07469060  0.13889131  0.50804934    -0.93600
O381        O  0.46123600  0.24680093  0.49746509    -0.41400
O382        O  0.01975823  0.02616328  0.51869921    -0.78100
O383        O  0.05487092  0.31676609  0.51820709    -0.96700
O384        O  0.15615826  0.04136363  0.51747073    -0.90000
O385        O  0.11391261  0.08852367  0.51829493    -0.92900
C386        C  0.45884892  0.29376648  0.44504847     1.00900
C387        C  0.07272508  0.10872403  0.44512457     1.13800
C388        C  0.15806575  0.00202352  0.44257642     1.04600
O389        O  0.09601224  0.26194401  0.48841421    -0.95000
O390        O  0.11249210  0.29017299  0.53038337    -0.90800
O391        O  0.09302318  0.31851275  0.55535711    -0.83900
C392        C  0.09967862  0.29323696  0.54934037     1.11200
O393        O  0.21997697  0.12893343  0.46398581    -0.97000
Zr394      Zr  0.17884433  0.09351648  0.49598750     1.88900
O395        O  0.16603552  0.08365930  0.55469218    -0.73700
O396        O  0.20472393  0.00140535  0.50456949    -0.52900
O397        O  0.25563799  0.09295704  0.48971911    -0.97600
O398        O  0.20274476  0.15582503  0.49872764    -0.54800
O399        O  0.22371847  0.11053015  0.52860893    -0.74200
C400        C  0.21012897  0.10549169  0.54811293     0.98200
O401        O  0.08327976  0.36762121  0.57829266    -0.63000
O402        O  0.46411144  0.07272900  0.48710052    -0.57800
O403        O  0.02348201  0.04079589  0.55532850    -0.94500
O404        O  0.00088679  0.07058895  0.53158885    -0.92900
O405        O  0.41004640  0.31206441  0.50162313    -0.93300
O406        O  0.43614646  0.27742008  0.52874821    -0.92100
C407        C  0.99785803  0.05543180  0.54995904     1.17000
H408        H  0.98334632  0.02523846  0.46703402     0.32900
H409        H  0.03867172  0.29485013  0.52635542     0.43800
H410        H  0.12430117  0.10875135  0.52713689     0.37300
H411        H  0.17744263  0.04896545  0.46696176     0.33800
H412        H  0.42518715  0.23454466  0.49520806     0.25600
H413        H  0.20679358  0.31380233  0.49885188     0.31500
H414        H  0.28159207  0.11477332  0.49613784     0.37400
H415        H  0.38435264  0.29055160  0.49483337     0.31900
H416        H  0.43949068  0.05317418  0.49629888     0.30800
H417        H  0.04768296  0.13844845  0.51653697     0.32500
H418        H  0.20635378  0.16059307  0.51415249     0.31400
H419        H  0.45556184  0.29118617  0.54099463     0.35400
H420        H  0.55394636  0.34224728  0.58169605     0.28200
H421        H  0.07037171  0.01718690  0.40958743     0.32400
H422        H  0.25433638  0.14531538  0.46814265     0.32800
H423        H  0.46488497  0.09419521  0.49247240     0.27900
H424        H  0.11355542  0.36836119  0.58385504     0.40700
H425        H  0.06102570  0.24868934  0.49299809     0.30800
H426        H  0.47497454  0.24373585  0.48400493     0.38400
H427        H  0.17295910  0.15713191  0.49461216     0.30200
H428        H  0.22602511  0.02002798  0.49401554     0.30300
H429        H  0.11308206  0.05617287  0.41188174     0.30600
C430        C  0.39575591  0.32594260  0.23396725     0.02700
C431        C  0.44200314  0.32759914  0.23347852    -0.13500
C432        C  0.48028103  0.35035927  0.24677023     0.00200
C433        C  0.47195388  0.03807285  0.26123491    -0.12000
C434        C  0.42600693  0.03654772  0.26199156     0.02700
C435        C  0.38779049  0.34716340  0.24814196    -0.11400
H436        H  0.44825414  0.31118468  0.22262911     0.08300
H437        H  0.00078027  0.05542089  0.27134855     0.05800
H438        H  0.35226324  0.34598228  0.24877688     0.05600
C439        C  0.24602909  0.10407782  0.26554918     0.02700
C440        C  0.26401886  0.12893540  0.24846187    -0.13500
C441        C  0.23243638  0.12858309  0.23255859     0.00200
C442        C  0.18195172  0.10335512  0.23370220    -0.12000
C443        C  0.16350082  0.07814509  0.25054441     0.02700
C444        C  0.19575563  0.07890237  0.26653753    -0.11400
H445        H  0.30242556  0.14929753  0.24777917     0.08300
H446        H  0.15736762  0.10295688  0.22129289     0.05800
H447        H  0.18199163  0.05886871  0.27925544     0.05600
C448        C  0.11194209  0.25424475  0.23232922     0.02700
C449        C  0.10294892  0.28268122  0.23206465    -0.13500
C450        C  0.06960056  0.28361287  0.24634827     0.00200
C451        C  0.04312297  0.25506012  0.26054717    -0.12000
C452        C  0.05186219  0.22622093  0.26112533     0.02700
C453        C  0.08668043  0.22591609  0.24713752    -0.11400
H454        H  0.12341342  0.30501892  0.22113256     0.08300
H455        H  0.01738325  0.25593768  0.27175151     0.05800
H456        H  0.09330678  0.20365118  0.24751884     0.05600
C457        C  0.02750200  0.01709584  0.24725646     0.79800
N458        N  0.02605088  0.31791162  0.24695202    -0.78500
C459        C  0.06864630  0.31674982  0.24785152     0.82200
N460        N  0.11277109  0.01497893  0.24930128    -0.78500
C461        C  0.11440199  0.04655787  0.24936836     0.82300
N462        N  0.07157337  0.04786516  0.24832463    -0.80200
Zr463      Zr  0.22957809  0.23164972  0.12257889     2.17500
O464        O  0.23315213  0.24176419  0.08391916    -0.51800
O465        O  0.15457172  0.18466493  0.10609833    -0.75000
O466        O  0.28897432  0.21998638  0.10497227    -0.81800
O467        O  0.21009799  0.31170314  0.13199767    -0.83500
O468        O  0.30967508  0.18967067  0.12918193    -0.79100
O469        O  0.23595236  0.28562035  0.10813574    -0.90800
O470        O  0.09726488  0.15420604  0.13183392    -0.76700
O471        O  0.20320970  0.17869006  0.14336071    -0.86200
O472        O  0.16306793  0.22711545  0.14352371    -0.85900
O473        O  0.30048241  0.24266339  0.14382368    -0.72700
O474        O  0.26210753  0.28333728  0.14393875    -0.84800
Zr475      Zr  0.24040095  0.23434517  0.20754152     2.26400
Zr476      Zr  0.27350898  0.18883267  0.16435928     2.06300
Zr477      Zr  0.19600383  0.27799113  0.16544441     2.10000
Zr478      Zr  0.13778338  0.17497525  0.16498811     1.78800
O479        O  0.22691465  0.33896904  0.17571063    -0.93600
O480        O  0.11323166  0.11232529  0.16623688    -0.41400
O481        O  0.17132265  0.22557754  0.18639638    -0.78100
O482        O  0.20576571  0.18262883  0.18579659    -0.96700
O483        O  0.30716510  0.24018781  0.18621511    -0.90000
O484        O  0.26502347  0.28754425  0.18709923    -0.92900
C485        C  0.11129353  0.16082490  0.11240925     1.00900
C486        C  0.22667454  0.30983923  0.11364812     1.13800
C487        C  0.31291772  0.20418090  0.11049560     1.04600
O488        O  0.24353944  0.12797226  0.15436044    -0.95000
O489        O  0.26087229  0.15458840  0.19794109    -0.90800
O490        O  0.24428370  0.18407259  0.22321058    -0.83900
C491        C  0.24923793  0.15813035  0.21706561     1.11200
O492        O  0.37792901  0.32920389  0.13450711    -0.97000
Zr493      Zr  0.33090465  0.29304985  0.16534082     1.88900
O494        O  0.31415764  0.28215174  0.22429956    -0.73700
O495        O  0.35323058  0.19503850  0.17382309    -0.52900
O496        O  0.40759542  0.29221339  0.15947080    -0.97600
O497        O  0.34827111  0.02147717  0.16777195    -0.54800
O498        O  0.37289924  0.31015297  0.19873473    -0.74200
C499        C  0.35830924  0.30460104  0.21813815     0.98200
O500        O  0.22793936  0.22907765  0.24620021    -0.63000
O501        O  0.11653626  0.27224330  0.15602958    -0.57800
O502        O  0.17255405  0.23955353  0.22257737    -0.94500
O503        O  0.15299382  0.27135132  0.19902792    -0.92900
O504        O  0.06265427  0.17879039  0.16757498    -0.93300
O505        O  0.08684805  0.14326487  0.19599847    -0.92100
C506        C  0.14823467  0.25519703  0.21711859     1.17000
H507        H  0.13674664  0.22582499  0.13471825     0.32900
H508        H  0.18914756  0.16070809  0.19392730     0.43800
H509        H  0.27483042  0.30743121  0.19617909     0.37300
H510        H  0.33017164  0.24960664  0.13575242     0.33800
H511        H  0.07774157  0.10002280  0.16274156     0.25600
H512        H  0.35848793  0.18010005  0.16370553     0.31500
H513        H  0.43310324  0.31307937  0.16683954     0.37400
H514        H  0.03621387  0.15571367  0.16271872     0.31900
H515        H  0.09239823  0.25303507  0.16557845     0.30800
H516        H  0.19935640  0.00970914  0.17504991     0.32500
H517        H  0.34525475  0.02522411  0.18305294     0.31400
H518        H  0.10057148  0.16021004  0.20767922     0.35400
H519        H  0.20076872  0.20472297  0.24923424     0.28200
H520        H  0.22567533  0.21907885  0.07756403     0.32400
H521        H  0.40523737  0.01686633  0.13967003     0.35200
H522        H  0.11785993  0.29397155  0.16125839     0.27900
H523        H  0.25748504  0.22941705  0.25232304     0.40700
H524        H  0.21234635  0.11415278  0.16249295     0.30800
H525        H  0.12940282  0.10904363  0.15364121     0.38400
H526        H  0.31982893  0.02186710  0.16094145     0.30200
H527        H  0.37745841  0.21957607  0.16934649     0.30300
H528        H  0.26819033  0.25807159  0.08019947     0.30600
Zr529      Zr  0.40460094  0.12950552  0.28975439     2.17500
O530        O  0.39359382  0.13857785  0.25196745    -0.51800
O531        O  0.40880755  0.08129227  0.27248256    -0.75000
O532        O  0.97837782  0.17603722  0.27161903    -0.81800
O533        O  0.26438400  0.09193265  0.30067520    -0.83500
O534        O  0.04221127  0.19785471  0.29485812    -0.79100
O535        O  0.32594860  0.11877735  0.27604581    -0.90800
O536        O  0.42208416  0.04843929  0.29764077    -0.76700
O537        O  0.46051161  0.11786205  0.30954334    -0.86200
O538        O  0.35385574  0.07817672  0.31125270    -0.85900
O539        O  0.45129267  0.18183454  0.31007103    -0.72700
O540        O  0.35478364  0.14441323  0.31162963    -0.84800
Zr541      Zr  0.40994587  0.13329827  0.37429392     2.26400
Zr542      Zr  0.50749706  0.16971636  0.32998200     2.06300
Zr543      Zr  0.30567609  0.09342294  0.33394149     2.10000
Zr544      Zr  0.40966589  0.06707720  0.33154477     1.78800
O545        O  0.24473748  0.11097327  0.34241212    -0.93600
O546        O  0.48103836  0.05873270  0.33596866    -0.41400
O547        O  0.36127119  0.08144627  0.35421222    -0.78100
O548        O  0.45890018  0.11779823  0.35202584    -0.96700
O549        O  0.45908195  0.18470815  0.35263828    -0.90000
O550        O  0.35292235  0.14447285  0.35480040    -0.92900
C551        C  0.41774604  0.05648718  0.27833761     1.00900
C552        C  0.28063753  0.10457842  0.28183908     1.13800
C553        C  0.02333024  0.19713711  0.27647525     1.04600
O554        O  0.07098975  0.15470076  0.32130459    -0.95000
O555        O  0.04957315  0.17367914  0.36321122    -0.90800
O556        O  0.49002621  0.14894770  0.38911505    -0.83900
C557        C  0.03475623  0.16285751  0.38247614     1.11200
O558        O  0.40172545  0.23095842  0.30196382    -0.97000
Zr559      Zr  0.40210410  0.19515088  0.33258543     1.88900
O560        O  0.40320994  0.18033048  0.39180260    -0.73700
O561        O  0.06696105  0.23131431  0.33614383    -0.52900
O562        O  0.47344903  0.25444189  0.33268432    -0.97600
O563        O  0.32862049  0.20147098  0.33165086    -0.54800
O564        O  0.39915673  0.21749930  0.36668336    -0.74200
C565        C  0.39966341  0.20754039  0.38596662     0.98200
O566        O  0.41813566  0.12223442  0.41208813    -0.63000
O567        O  0.24471210  0.03210755  0.32780663    -0.57800
O568        O  0.33717119  0.08257556  0.39012626    -0.94500
O569        O  0.27098761  0.06494341  0.36848585    -0.92900
O570        O  0.33943431  0.00810515  0.32737527    -0.93300
O571        O  0.40046627  0.02845460  0.36214515    -0.92100
C572        C  0.29122991  0.06319780  0.38600769     1.17000
H573        H  0.33294255  0.05841781  0.30252823     0.32900
H574        H  0.47940431  0.11098151  0.36014159     0.43800
H575        H  0.33138177  0.14807777  0.36417047     0.37300
H576        H  0.46783160  0.20339807  0.30158951     0.33800
H577        H  0.47052431  0.03493577  0.33049129     0.25600
H578        H  0.09915459  0.23383504  0.33195940     0.31500
H579        H  0.46125292  0.26953565  0.33876127     0.37400
H580        H  0.35378736  0.32576851  0.32418719     0.31900
H581        H  0.25452523  0.01801862  0.33724318     0.30800
H582        H  0.21273121  0.09031449  0.33885755     0.32500
H583        H  0.31214187  0.19197806  0.34564331     0.31400
H584        H  0.41121871  0.04422364  0.37445773     0.35400
H585        H  0.39020083  0.12230498  0.41950211     0.28200
H586        H  0.41846730  0.13519275  0.24418344     0.32400
H587        H  0.40043216  0.25133995  0.30794472     0.35200
H588        H  0.21384320  0.02900321  0.33425641     0.27900
H589        H  0.41149916  0.09749554  0.41339223     0.40700
H590        H  0.06370686  0.14576254  0.30664098     0.30800
H591        H  0.00604213  0.07661837  0.32772728     0.38400
H592        H  0.30675794  0.18389492  0.32132661     0.30200
H593        H  0.06033214  0.24514481  0.32510581     0.30300
H594        H  0.40412002  0.16401220  0.24994453     0.30600
C595        C  0.07359804  0.47252059  0.09692574     0.02700
C596        C  0.02737834  0.47087597  0.09728268    -0.13500
C597        C  0.48884140  0.44733258  0.08393600     0.00200
C598        C  0.49707690  0.42548299  0.07071067    -0.12000
C599        C  0.04291091  0.42694575  0.07049545     0.02700
C600        C  0.08146783  0.45062780  0.08330856    -0.11400
H601        H  0.02126442  0.48779528  0.10776710     0.08300
H602        H  0.46831408  0.40821719  0.06003551     0.05800
H603        H  0.11704404  0.45187384  0.08275765     0.05600
C604        C  0.34927849  0.53858678  0.09534355     0.02700
C605        C  0.36150987  0.51182677  0.09678864    -0.13500
C606        C  0.39741967  0.51227312  0.08342189     0.00200
C607        C  0.42298595  0.54013361  0.06888860    -0.12000
C608        C  0.41125533  0.56723688  0.06680010     0.02700
C609        C  0.37390177  0.56647565  0.07991406    -0.11400
H610        H  0.34176103  0.48968653  0.10793703     0.08300
H611        H  0.45041873  0.53985220  0.05843045     0.05800
H612        H  0.36546240  0.58784338  0.07864544     0.05600
C613        C  0.22080326  0.36490806  0.06771099     0.02700
C614        C  0.20575663  0.67381860  0.08496673    -0.13500
C615        C  0.24063960  0.67219352  0.09832889     0.00200
C616        C  0.29099781  0.36218280  0.09480337    -0.12000
C617        C  0.30634888  0.38769324  0.07836833     0.02700
C618        C  0.27118507  0.38872101  0.06471679    -0.11400
H619        H  0.16714128  0.65451145  0.08720248     0.08300
H620        H  0.31786039  0.36156253  0.10560798     0.05800
H621        H  0.28314297  0.40897665  0.05215640     0.05600
C622        C  0.44185010  0.44769436  0.08278932     0.79800
N623        N  0.44254154  0.47919271  0.08340806    -0.78500
C624        C  0.39981269  0.48002710  0.08192939     0.82200
N625        N  0.35706129  0.45002852  0.07959742    -0.78500
C626        C  0.35549980  0.41868837  0.07886353     0.82300
N627        N  0.39798405  0.41710379  0.08066705    -0.80200
C628        C  0.41127456  0.65351448  0.93127955     0.02700
C629        C  0.42257369  0.34889923  0.91715834    -0.13500
C630        C  0.38746013  0.34709595  0.90214482     0.00200
C631        C  0.34235471  0.64943675  0.90099411    -0.12000
C632        C  0.33203672  0.62029433  0.91448111     0.02700
C633        C  0.36618986  0.62265244  0.92955881    -0.11400
H634        H  0.45803119  0.37270706  0.91798346     0.08300
H635        H  0.31550201  0.64729523  0.88922555     0.05800
H636        H  0.35767762  0.59994224  0.93996177     0.05600
C637        C  0.21501336  0.43238675  0.93162870     0.02700
C638        C  0.21424180  0.46451542  0.93125274    -0.13500
C639        C  0.24089525  0.49076159  0.91558902     0.00200
C640        C  0.26767455  0.48425090  0.90019927    -0.12000
C641        C  0.26761266  0.45189481  0.90042041     0.02700
C642        C  0.24166505  0.42611036  0.91620437    -0.11400
H643        H  0.19295106  0.46902851  0.94313707     0.08300
H644        H  0.28853060  0.50430443  0.88801854     0.05800
H645        H  0.24182770  0.40120840  0.91636105     0.05600
C646        C  0.19904543  0.55743507  0.91637951     0.79800
N647        N  0.24244449  0.58800397  0.91495096    -0.78500
C648        C  0.28522249  0.58725016  0.91366762     0.82200
N649        N  0.28462870  0.55572196  0.91392405    -0.78500
C650        C  0.24124923  0.52491281  0.91533190     0.82300
N651        N  0.19839104  0.52586629  0.91651427    -0.80200
C652        C  0.10016456  0.58110704  0.92886311     0.02700
C653        C  0.06569423  0.56220214  0.91319374    -0.13500
C654        C  0.07485778  0.54156703  0.89902059     0.00200
C655        C  0.11841203  0.53995475  0.90047891    -0.12000
C656        C  0.15299761  0.55869318  0.91594125     0.02700
C657        C  0.14409745  0.57943121  0.93009931    -0.11400
H658        H  0.03141854  0.56288622  0.91234897     0.08300
H659        H  0.12542841  0.52399250  0.88954491     0.05800
H660        H  0.17093536  0.59381632  0.94221395     0.05600
Zr661      Zr  0.06054489  0.66677888  0.04162914     2.17500
O662        O  0.05352877  0.64741210  0.07901771    -0.51800
O663        O  0.05529823  0.38005673  0.05978125    -0.75000
O664        O  0.13906714  0.34807755  0.05786561    -0.81800
O665        O  0.42394413  0.59591058  0.03274892    -0.83500
O666        O  0.20043164  0.37733020  0.03341159    -0.79100
O667        O  0.48579801  0.61708105  0.05697484    -0.90800
O668        O  0.04921871  0.41670385  0.03494527    -0.76700
O669        O  0.10966393  0.38621255  0.02137201    -0.86200
O670        O  0.00345189  0.34329972  0.02131693    -0.85900
O671        O  0.11304826  0.65384372  0.01994241    -0.72700
O672        O  0.01594192  0.61636527  0.01975836    -0.84800
Zr673      Zr  0.06465503  0.33487240  0.95641243     2.26400
Zr674      Zr  0.16180978  0.37403583  0.99923666     2.06300
Zr675      Zr  0.46063744  0.62683362  0.99874798     2.10000
Zr676      Zr  0.05285423  0.39563231  0.00056416     1.78800
O677        O  0.40691288  0.56597440  0.98859371    -0.93600
O678        O  0.11823336  0.45706976  0.00096297    -0.41400
O679        O  0.01145629  0.34635595  0.97825656    -0.78100
O680        O  0.10658522  0.38592115  0.97841528    -0.96700
O681        O  0.11954346  0.65722009  0.97727820    -0.90000
O682        O  0.01287788  0.61535275  0.97645853    -0.92900
C683        C  0.05075544  0.40691855  0.05415522     1.00900
C684        C  0.44128894  0.59613756  0.05143508     1.13800
C685        C  0.18462747  0.36414324  0.05218721     1.04600
O686        O  0.22282137  0.43517192  0.00557414    -0.95000
O687        O  0.20000881  0.40533860  0.96586479    -0.90800
O688        O  0.14032835  0.38250623  0.94072172    -0.83900
C689        C  0.18385145  0.40438509  0.94690387     1.11200
O690        O  0.05337132  0.56555668  0.02889067    -0.97000
Zr691      Zr  0.06828206  0.60464735  0.99776967     1.88900
O692        O  0.07374571  0.62155882  0.93940158    -0.73700
O693        O  0.22587900  0.35910855  0.99178048    -0.52900
O694        O  0.14129307  0.59962271  0.00569892    -0.97600
O695        O  0.00638272  0.54420276  0.98956221    -0.54800
O696        O  0.09384002  0.59243169  0.96455858    -0.74200
C697        C  0.08856885  0.59969706  0.94520838     0.98200
O698        O  0.05758939  0.34067896  0.91786453    -0.63000
O699        O  0.38934586  0.63399707  0.00600958    -0.57800
O700        O  0.99200239  0.66727566  0.94112719    -0.94500
O701        O  0.42856650  0.63707260  0.96517121    -0.92900
O702        O  0.47627628  0.39709613  0.00048676    -0.93300
O703        O  0.04769102  0.43087643  0.97080647    -0.92100
C704        C  0.44613067  0.65272246  0.94694668     1.17000
H705        H  0.48121861  0.34592179  0.03035150     0.32900
H706        H  0.12305922  0.40802193  0.97042429     0.43800
H707        H  0.99358044  0.59634974  0.96700006     0.37300
H708        H  0.13320912  0.64696301  0.02828130     0.33800
H709        H  0.10188831  0.47038414  0.00563478     0.25600
H710        H  0.25685949  0.38025858  0.99583642     0.31500
H711        H  0.13481507  0.57707075  0.99947622     0.37400
H712        H  0.95384841  0.37708697  0.99047749     0.31900
H713        H  0.36125766  0.60960165  0.00717912     0.30800
H714        H  0.37993532  0.56663858  0.98056570     0.32500
H715        H  0.02481543  0.53106280  0.98896366     0.31400
H716        H  0.04100510  0.41587778  0.95827333     0.35400
H717        H  0.06740279  0.36581178  0.91490364     0.28200
H718        H  0.07485320  0.66886110  0.08706087     0.32400
H719        H  0.05876420  0.54618141  0.02413400     0.35200
H720        H  0.39391083  0.64280219  0.02068870     0.27900
H721        H  0.08428549  0.33775975  0.91143378     0.40700
H722        H  0.20885971  0.44925468  0.99898999     0.30800
H723        H  0.13916173  0.45806386  0.01313992     0.38400
H724        H  0.50115759  0.54449035  0.97331363     0.30200
H725        H  0.21844398  0.67194189  0.00204769     0.30300
H726        H  0.06979684  0.63274608  0.08007374     0.30600
C727        C  0.41113777  0.61083925  0.73252120     0.02700
C728        C  0.45844019  0.63979806  0.73279278    -0.13500
C729        C  0.49380055  0.64019804  0.74657096     0.00200
C730        C  0.48274140  0.61104630  0.76000356    -0.12000
C731        C  0.43555787  0.58134638  0.76022539     0.02700
C732        C  0.39923793  0.58123832  0.74646472    -0.11400
H733        H  0.46755174  0.32985923  0.72228751     0.08300
H734        H  0.51043114  0.61201779  0.77093632     0.05800
H735        H  0.36238263  0.55869782  0.74671457     0.05600
C736        C  0.22752228  0.34679847  0.73700918     0.02700
C737        C  0.26406038  0.36939591  0.75093436    -0.13500
C738        C  0.25450797  0.39060621  0.76454487     0.00200
C739        C  0.20902020  0.38943549  0.76395804    -0.12000
C740        C  0.17290073  0.36737273  0.74992694     0.02700
C741        C  0.18178252  0.34570955  0.73670130    -0.11400
H742        H  0.29980416  0.37087121  0.75093800     0.08300
H743        H  0.20188007  0.40604154  0.77430112     0.05800
H744        H  0.15342450  0.66227162  0.72641399     0.05600
C745        C  0.10847036  0.49147566  0.73063003     0.02700
C746        C  0.08298748  0.49831709  0.74638045    -0.13500
C747        C  0.05960225  0.47357705  0.76301334     0.00200
C748        C  0.06048082  0.44170736  0.76358615    -0.12000
C749        C  0.08619345  0.43502696  0.74785420     0.02700
C750        C  0.11083392  0.46015045  0.73154031    -0.11400
H751        H  0.08205805  0.52294827  0.74589195     0.08300
H752        H  0.54115772  0.42191493  0.77589015     0.05800
H753        H  0.13152076  0.45528016  0.71952375     0.05600
C754        C  0.12697448  0.36845685  0.74859666     0.79800
N755        N  0.12811303  0.40009326  0.74847332    -0.78500
C756        C  0.08555221  0.40128497  0.74801483     0.82200
N757        N  0.04200939  0.37096795  0.74758865    -0.78500
C758        C  0.04077927  0.33937729  0.74758450     0.82300
N759        N  0.08327436  0.33803840  0.74811138    -0.80200
Zr760      Zr  0.41522449  0.47035094  0.78881477     2.17500
O761        O  0.42003548  0.46200807  0.75073697    -0.51800
O762        O  0.41982167  0.52328843  0.77091232    -0.75000
O763        O  0.33644177  0.42958879  0.77350733    -0.81800
O764        O  0.04809776  0.48790770  0.79751819    -0.83500
O765        O  0.27635703  0.41465849  0.79853107    -0.79100
O766        O  0.48737356  0.47258928  0.77290595    -0.90800
O767        O  0.42882293  0.56246673  0.79603766    -0.76700
O768        O  0.36778744  0.48749555  0.80982473    -0.86200
O769        O  0.47410666  0.51857865  0.80880218    -0.85900
O770        O  0.36409956  0.41852870  0.81093718    -0.72700
O771        O  0.45892832  0.44791185  0.80998920    -0.84800
Zr772      Zr  0.41583123  0.46112297  0.87405701     2.26400
Zr773      Zr  0.31701296  0.43667083  0.83218784     2.06300
Zr774      Zr  0.01609916  0.49607178  0.83070677     2.10000
Zr775      Zr  0.42637141  0.53491604  0.83033053     1.78800
O776        O  0.07781567  0.47820104  0.83760286    -0.93600
O777        O  0.35830121  0.54733372  0.83187169    -0.41400
O778        O  0.46860572  0.51246028  0.85221256    -0.78100
O779        O  0.37401852  0.48541125  0.85276705    -0.96700
O780        O  0.35890728  0.41318129  0.85361491    -0.90000
O781        O  0.46526135  0.44528525  0.85329401    -0.92900
C782        C  0.42573553  0.55333325  0.77663897     1.00900
C783        C  0.03040838  0.47917062  0.77877417     1.13800
C784        C  0.29133979  0.41349798  0.77969924     1.04600
O785        O  0.26034592  0.45917052  0.82502185    -0.95000
O786        O  0.28072742  0.43850512  0.86593664    -0.90800
O787        O  0.34107095  0.45409576  0.89066085    -0.83900
C788        C  0.29762346  0.44662214  0.88484568     1.11200
O789        O  0.40968165  0.36314932  0.80279177    -0.97000
Zr790      Zr  0.40843262  0.39772390  0.83247464     1.88900
O791        O  0.40738232  0.40658064  0.89182498    -0.73700
O792        O  0.25103615  0.37701348  0.84079256    -0.52900
O793        O  0.33241626  0.34155585  0.82927858    -0.97600
O794        O  0.47922789  0.38804122  0.83378480    -0.54800
O795        O  0.39610051  0.36715784  0.86649352    -0.74200
C796        C  0.39845867  0.37578492  0.88594452     0.98200
O797        O  0.42642821  0.47476481  0.91184595    -0.63000
O798        O  0.07972981  0.55631860  0.82167805    -0.57800
O799        O  0.99313329  0.50493912  0.88884173    -0.94500
O800        O  0.05441092  0.51880890  0.86462806    -0.92900
O801        O  0.50163987  0.59199616  0.82996766    -0.93300
O802        O  0.43391040  0.57097888  0.86063590    -0.92100
C803        C  0.03852010  0.52052059  0.88313423     1.17000
H804        H  0.49672762  0.53785974  0.79953270     0.32900
H805        H  0.35809205  0.49517558  0.86120217     0.43800
H806        H  0.48495551  0.43877580  0.86227087     0.37300
H807        H  0.34325737  0.39780128  0.80300308     0.33800
H808        H  0.37315519  0.57273504  0.82782489     0.25600
H809        H  0.22032414  0.37792826  0.83815025     0.31500
H810        H  0.33962627  0.65726675  0.83507459     0.37400
H811        H  0.49133634  0.60926701  0.82513603     0.31900
H812        H  0.07907599  0.57053961  0.83359703     0.30800
H813        H  0.10889324  0.50052928  0.83973665     0.32500
H814        H  0.48490331  0.38549470  0.84910987     0.31400
H815        H  0.42913055  0.55545265  0.87329782     0.35400
H816        H  0.41608692  0.49274536  0.91374531     0.28200
H817        H  0.39735355  0.46889890  0.74371836     0.32400
H818        H  0.40970179  0.67715987  0.80772731     0.35200
H819        H  0.11114678  0.55605930  0.82338249     0.27900
H820        H  0.40106900  0.45327627  0.91950460     0.40700
H821        H  0.26780364  0.47718820  0.83587072     0.30800
H822        H  0.33732492  0.53497487  0.81962546     0.38400
H823        H  0.50760520  0.41098176  0.82914932     0.30200
H824        H  0.25239436  0.36234867  0.82930686     0.30300
H825        H  0.40468663  0.43617113  0.74890747     0.30600
C826        C  0.24827698  0.46084593  0.56404896     0.02700
C827        C  0.29446349  0.46227377  0.56350841    -0.13500
C828        C  0.33312756  0.48546593  0.57653022     0.00200
C829        C  0.32543757  0.50746110  0.58991301    -0.12000
C830        C  0.27965512  0.50615977  0.59068652     0.02700
C831        C  0.24098477  0.48282699  0.57780964    -0.11400
H832        H  0.30027353  0.44531945  0.55294193     0.08300
H833        H  0.35445065  0.52451037  0.60056097     0.05800
H834        H  0.20550966  0.48172258  0.57855026     0.05600
C835        C  0.09933615  0.57056135  0.59629348     0.02700
C836        C  0.11566512  0.59687888  0.58008040    -0.13500
C837        C  0.08276492  0.59677139  0.56491789     0.00200
C838        C  0.03267747  0.57067914  0.56607839    -0.12000
C839        C  0.01601271  0.54397487  0.58203035     0.02700
C840        C  0.04965806  0.54416988  0.59709323    -0.11400
H841        H  0.15367148  0.61793751  0.57948034     0.08300
H842        H  0.00715651  0.57068319  0.55427523     0.05800
H843        H  0.03727479  0.52313826  0.60917332     0.05600
C844        C  0.46380127  0.38917466  0.56637860     0.02700
C845        C  0.95337094  0.41565986  0.56586483    -0.13500
C846        C  0.42203906  0.41843068  0.58106876     0.00200
C847        C  0.39890512  0.39119570  0.59647833    -0.12000
C848        C  0.40834306  0.36263675  0.59716288     0.02700
C849        C  0.44125095  0.36179448  0.58214505    -0.11400
H850        H  0.97193529  0.43728105  0.55426712     0.08300
H851        H  0.37432565  0.39250084  0.60813929     0.05800
H852        H  0.44447079  0.67148622  0.58146713     0.05600
C853        C  0.37985867  0.48458071  0.57780067     0.79800
N854        N  0.42413767  0.51515519  0.57896292    -0.78500
C855        C  0.46643254  0.51349187  0.58154324     0.82200
N856        N  0.46400189  0.48166489  0.58301422    -0.78500
C857        C  0.42059791  0.45142738  0.58189968     0.82300
N858        N  0.37837050  0.45273489  0.57911870    -0.80200
Zr859      Zr  0.25533437  0.59130706  0.70692104     2.17500
O860        O  0.24783449  0.57683686  0.74520121    -0.51800
O861        O  0.24722175  0.63692868  0.72601909    -0.75000
O862        O  0.33032156  0.59778200  0.72322930    -0.81800
O863        O  0.12037770  0.51971524  0.69686209    -0.83500
O864        O  0.39209058  0.62827193  0.69902012    -0.79100
O865        O  0.18288032  0.53979369  0.72075002    -0.90800
O866        O  0.23288323  0.33691819  0.70130789    -0.76700
O867        O  0.30562321  0.64522026  0.68745011    -0.86200
O868        O  0.19842593  0.60259068  0.68732567    -0.85900
O869        O  0.30637406  0.57857454  0.68400143    -0.72700
O870        O  0.21056812  0.54192798  0.68427726    -0.84800
Zr871      Zr  0.25769336  0.59695998  0.62175164     2.26400
Zr872      Zr  0.35678436  0.63291761  0.66448892     2.06300
Zr873      Zr  0.15538642  0.55410681  0.66408249     2.10000
Zr874      Zr  0.24848073  0.65585494  0.66737942     1.78800
O875        O  0.09672332  0.49344918  0.65530070    -0.93600
O876        O  0.31151261  0.38326538  0.67149318    -0.41400
O877        O  0.20463263  0.60789141  0.64411433    -0.78100
O878        O  0.30128428  0.64632375  0.64474787    -0.96700
O879        O  0.31305691  0.58423022  0.64129558    -0.90000
O880        O  0.20666328  0.54286281  0.64089524    -0.92900
C881        C  0.23807127  0.66198439  0.72092647     1.00900
C882        C  0.13866568  0.51894050  0.71509838     1.13800
C883        C  0.37566357  0.61267332  0.71744234     1.04600
O884        O  0.41594210  0.35917962  0.67367085    -0.95000
O885        O  0.39550275  0.33169726  0.63075204    -0.90800
O886        O  0.33368233  0.64411951  0.60581182    -0.83900
C887        C  0.37856180  0.33267612  0.61207661     1.11200
O888        O  0.25814485  0.49138648  0.69032014    -0.97000
Zr889      Zr  0.26172891  0.53092882  0.66114613     1.88900
O890        O  0.26295095  0.55073907  0.60238106    -0.73700
O891        O  0.41863563  0.61685431  0.65481067    -0.52900
O892        O  0.33772876  0.52792818  0.66298844    -0.97600
O893        O  0.19492549  0.47041986  0.65770700    -0.54800
O894        O  0.27449913  0.51554289  0.62644617    -0.74200
C895        C  0.27128097  0.52532313  0.60744585     0.98200
O896        O  0.24939698  0.61358089  0.58502390    -0.63000
O897        O  0.09018705  0.56698432  0.67343593    -0.57800
O898        O  0.18004361  0.58669562  0.60685768    -0.94500
O899        O  0.11747984  0.55609160  0.63060610    -0.92900
O900        O  0.17339424  0.65965699  0.66369803    -0.93300
O901        O  0.25106243  0.35999389  0.63683543    -0.92100
C902        C  0.13434864  0.57085664  0.61224899     1.17000
H903        H  0.17526447  0.60451776  0.69661647     0.32900
H904        H  0.31921783  0.33543426  0.63717600     0.43800
H905        H  0.18706024  0.52408678  0.63134282     0.37300
H906        H  0.32532821  0.56955784  0.69129770     0.33800
H907        H  0.29324286  0.39639793  0.67301138     0.25600
H908        H  0.45052180  0.63851614  0.65703440     0.31500
H909        H  0.33042021  0.50596512  0.65572792     0.37400
H910        H  0.15770108  0.31530291  0.65087311     0.31900
H911        H  0.09890724  0.58945057  0.66564056     0.30800
H912        H  0.06444007  0.48983403  0.66030842     0.32500
H913        H  0.18469589  0.46856554  0.64262781     0.31400
H914        H  0.24811484  0.34623312  0.62406365     0.35400
H915        H  0.26082254  0.63926762  0.58487847     0.28200
H916        H  0.27359795  0.59808435  0.75220787     0.32400
H917        H  0.26293829  0.47287636  0.68367390     0.35200
H918        H  0.06061191  0.54900510  0.66610198     0.27900
H919        H  0.27767694  0.27590664  0.57636164     0.40700
H920        H  0.40081168  0.37344950  0.66866135     0.30800
H921        H  0.32500959  0.38355787  0.68584693     0.38400
H922        H  0.16712143  0.46945168  0.66584216     0.30200
H923        H  0.41679350  0.60012979  0.66629480     0.30300
H924        H  0.25800312  0.55867039  0.74735458     0.30600
C925        C  0.42106178  0.60340100  0.43021298     0.02700
C926        C  0.42934193  0.58215876  0.41619243    -0.13500
C927        C  0.39145078  0.55962709  0.40267759     0.00200
C928        C  0.34572830  0.55834163  0.40312495    -0.12000
C929        C  0.33723341  0.57945634  0.41687825     0.02700
C930        C  0.37492166  0.60186383  0.43047116    -0.11400
H931        H  0.46478476  0.58318578  0.41576498     0.08300
H932        H  0.31725821  0.54173643  0.39212873     0.05800
H933        H  0.36843762  0.61826507  0.44124156     0.05600
C934        C  0.07056430  0.49654283  0.39816280     0.02700
C935        C  0.05499086  0.47198092  0.41542958    -0.13500
C936        C  0.08941589  0.47156003  0.42959543     0.00200
C937        C  0.13965646  0.49551637  0.42667711    -0.12000
C938        C  0.15552872  0.52056980  0.40992003     0.02700
C939        C  0.12091160  0.52081659  0.39556512    -0.11400
H940        H  0.51607192  0.45386974  0.41789665     0.08300
H941        H  0.16611685  0.49549369  0.43796491     0.05800
H942        H  0.13310889  0.54080665  0.38284197     0.05600
C943        C  0.19736889  0.33768797  0.42829926     0.02700
C944        C  0.22339209  0.36612217  0.41348909    -0.13500
C945        C  0.26223703  0.36760003  0.40124897     0.00200
C946        C  0.27427562  0.67432506  0.40320273    -0.12000
C947        C  0.24671984  0.64514972  0.41667745     0.02700
C948        C  0.20891212  0.64358441  0.42928725    -0.11400
H949        H  0.21484970  0.38743141  0.41205677     0.08300
H950        H  0.30316748  0.67501230  0.39327522     0.05800
H951        H  0.18810846  0.62078817  0.43986193     0.05600
C952        C  0.29056540  0.58015800  0.41571785     0.79800
N953        N  0.29149929  0.61171714  0.41666053    -0.78500
C954        C  0.24906107  0.61286866  0.41464765     0.82200
N955        N  0.20635937  0.58304765  0.41153388    -0.78500
C956        C  0.20462111  0.55163832  0.41063907     0.82300
N957        N  0.24680267  0.54982352  0.41294069    -0.80200
Zr958      Zr  0.07723749  0.36467962  0.45491065     2.17500
O959        O  0.07856621  0.37274330  0.41615056    -0.51800
O960        O  0.00260603  0.31701944  0.43888872    -0.75000
O961        O  0.13751787  0.35336217  0.43768328    -0.81800
O962        O  0.05912099  0.44537511  0.46384302    -0.83500
O963        O  0.15430963  0.65350882  0.46128605    -0.79100
O964        O  0.08337734  0.41828859  0.43996778    -0.90800
O965        O  0.44414361  0.62026146  0.46518947    -0.76700
O966        O  0.05138553  0.31223624  0.47608034    -0.86200
O967        O  0.01083795  0.36056169  0.47594238    -0.85900
O968        O  0.14897161  0.37629990  0.47573124    -0.72700
O969        O  0.10934102  0.41671184  0.47587810    -0.84800
Zr970      Zr  0.09050973  0.36912708  0.53945225     2.26400
Zr971      Zr  0.12134007  0.65556114  0.49657799     2.06300
Zr972      Zr  0.04389192  0.41183764  0.49765368     2.10000
Zr973      Zr  0.48580617  0.64229099  0.49802520     1.78800
O974        O  0.07506099  0.47240225  0.50871982    -0.93600
O975        O  0.46006548  0.57944302  0.49934137    -0.41400
O976        O  0.02039993  0.35983150  0.51878075    -0.78100
O977        O  0.05380855  0.64971749  0.51803856    -0.96700
O978        O  0.15663349  0.37497734  0.51785232    -0.90000
O979        O  0.11398608  0.42201621  0.51873392    -0.92900
C980        C  0.45837813  0.62544799  0.44576746     1.00900
C981        C  0.07496656  0.44295688  0.44539740     1.13800
C982        C  0.16020344  0.33659636  0.44319767     1.04600
O983        O  0.09675802  0.59431140  0.48946222    -0.95000
O984        O  0.11097609  0.62303411  0.53054293    -0.90800
O985        O  0.09180616  0.65155041  0.55553771    -0.83900
C986        C  0.09834222  0.62622845  0.54953373     1.11200
O987        O  0.22043288  0.46221355  0.46443001    -0.97000
Zr988      Zr  0.17925105  0.42734674  0.49657787     1.88900
O989        O  0.16602620  0.41714099  0.55513907    -0.73700
O990        O  0.20489401  0.33374862  0.50513924    -0.52900
O991        O  0.25751385  0.42873824  0.49084475    -0.97600
O992        O  0.20146114  0.48925709  0.49983856    -0.54800
O993        O  0.22385289  0.44434692  0.52915943    -0.74200
C994        C  0.21009622  0.43917588  0.54862562     0.98200
O995        O  0.08146981  0.70074172  0.57826008    -0.63000
O996        O  0.46499809  0.40816086  0.48807605    -0.57800
O997        O  0.02283060  0.37302224  0.55537948    -0.94500
O998        O  0.00162227  0.40408813  0.53198139    -0.92900
O999        O  0.41219298  0.64786680  0.50182830    -0.93300
O1000       O  0.43516077  0.61072014  0.52915454    -0.92100
C1001       C  0.99790430  0.38824618  0.55018653     1.17000
H1002       H  0.98439062  0.35910064  0.46714368     0.32900
H1003       H  0.03751159  0.62786163  0.52624586     0.43800
H1004       H  0.12412974  0.44209022  0.52768423     0.37300
H1005       H  0.17878094  0.38302755  0.46780003     0.33800
H1006       H  0.42413032  0.56733038  0.49678663     0.25600
H1007       H  0.20455935  0.64550199  0.50196436     0.31500
H1008       H  0.28299156  0.45229583  0.49551761     0.37400
H1009       H  0.41858822  0.66301864  0.51426948     0.31900
H1010       H  0.43981840  0.38531632  0.49452565     0.30800
H1011       H  0.04529387  0.47453766  0.51119271     0.32500
H1012       H  0.20411669  0.49359613  0.51531557     0.31400
H1013       H  0.45408370  0.62474550  0.54141789     0.35400
H1014       H  0.55679778  0.67826719  0.58258282     0.28200
H1015       H  0.07213736  0.35000402  0.41021221     0.32400
H1016       H  0.25167742  0.48239424  0.46921459     0.32800
H1017       H  0.46306025  0.42625999  0.49661469     0.27900
H1018       H  0.11169728  0.70161024  0.58398935     0.40700
H1019       H  0.07507235  0.58856275  0.47690389     0.30800
H1020       H  0.47422184  0.57562221  0.48625097     0.38400
H1021       H  0.17163594  0.49028981  0.49544092     0.30200
H1022       H  0.22706372  0.35456748  0.49606676     0.30300
H1023       H  0.11322145  0.38956104  0.41211667     0.30600
C1024       C  0.39545559  0.65922589  0.23393045     0.02700
C1025       C  0.44191115  0.66127862  0.23297161    -0.13500
C1026       C  0.48048244  0.68400044  0.24615951     0.00200
C1027       C  0.47212783  0.37175827  0.26053340    -0.12000
C1028       C  0.42599492  0.37002007  0.26145965     0.02700
C1029       C  0.38763624  0.68014748  0.24838763    -0.11400
H1030       H  0.44805850  0.64512414  0.22187178     0.08300
H1031       H  0.00137746  0.38867183  0.27107707     0.05800
H1032       H  0.35201305  0.67877279  0.24930829     0.05600
C1033       C  0.24532633  0.43742592  0.26565984     0.02700
C1034       C  0.26272629  0.46285608  0.24891222    -0.13500
C1035       C  0.23108663  0.46207002  0.23295296     0.00200
C1036       C  0.18088623  0.43615658  0.23387772    -0.12000
C1037       C  0.16303023  0.41033075  0.25040605     0.02700
C1038       C  0.19554733  0.41118947  0.26628954    -0.11400
H1039       H  0.30077822  0.48386440  0.24847149     0.08300
H1040       H  0.15613002  0.43568110  0.22153035     0.05800
H1041       H  0.18237160  0.39069303  0.27873091     0.05600
C1042       C  0.11336312  0.58859483  0.23308658     0.02700
C1043       C  0.10475845  0.61714020  0.23315164    -0.13500
C1044       C  0.07070961  0.61758938  0.24722155     0.00200
C1045       C  0.04343295  0.58852427  0.26099030    -0.12000
C1046       C  0.05220081  0.55967960  0.26138052     0.02700
C1047       C  0.08757851  0.55982623  0.24755370    -0.11400
H1048       H  0.12571576  0.63977161  0.22248058     0.08300
H1049       H  0.01710907  0.58900336  0.27202532     0.05800
H1050       H  0.09413332  0.53752880  0.24774704     0.05600
C1051       C  0.02706595  0.34956465  0.24716695     0.79800
N1052       N  0.02674889  0.65164874  0.24741287    -0.78500
C1053       C  0.06939291  0.65059974  0.24864930     0.82200
N1054       N  0.11206531  0.34703861  0.24895745    -0.78500
C1055       C  0.11394118  0.37870792  0.24921965     0.82300
N1056       N  0.07124852  0.38018727  0.24829767    -0.80200
Zr1057     Zr  0.22905489  0.56489548  0.12275526     2.17500
O1058       O  0.23110432  0.57349932  0.08400537    -0.51800
O1059       O  0.15425515  0.51762038  0.10638879    -0.75000
O1060       O  0.28912986  0.55366059  0.10532627    -0.81800
O1061       O  0.21012242  0.64534078  0.13227907    -0.83500
O1062       O  0.30947858  0.52302071  0.12947271    -0.79100
O1063       O  0.23483553  0.61876222  0.10824530    -0.90800
O1064       O  0.09639749  0.48775883  0.13200793    -0.76700
O1065       O  0.20338083  0.51207449  0.14354624    -0.86200
O1066       O  0.16223821  0.56005881  0.14361110    -0.85900
O1067       O  0.30004739  0.57621727  0.14408392    -0.72700
O1068       O  0.26067958  0.61654142  0.14408578    -0.84800
Zr1069     Zr  0.23973431  0.56778782  0.20761366     2.26400
Zr1070     Zr  0.27365919  0.52250511  0.16470634     2.06300
Zr1071     Zr  0.19435906  0.61088262  0.16555628     2.10000
Zr1072     Zr  0.13757670  0.50797626  0.16504839     1.78800
O1073       O  0.22286338  0.67178984  0.17520618    -0.93600
O1074       O  0.11585593  0.44587526  0.16487555    -0.41400
O1075       O  0.17011471  0.55854371  0.18658611    -0.78100
O1076       O  0.20556862  0.51611004  0.18588784    -0.96700
O1077       O  0.30676233  0.57405184  0.18634757    -0.90000
O1078       O  0.26356993  0.62090668  0.18720877    -0.92900
C1079       C  0.11074900  0.49411137  0.11262412     1.00900
C1080       C  0.22622439  0.64328370  0.11384841     1.13800
C1081       C  0.31287560  0.53766929  0.11081153     1.04600
O1082       O  0.24605113  0.46128203  0.15614731    -0.95000
O1083       O  0.26028135  0.48840112  0.19847457    -0.90800
O1084       O  0.24229321  0.51734766  0.22358920    -0.83900
C1085       C  0.24775097  0.49161937  0.21750929     1.11200
O1086       O  0.37460613  0.66209805  0.13397037    -0.97000
Zr1087     Zr  0.32962961  0.62681790  0.16543114     1.88900
O1088       O  0.31394409  0.61503045  0.22442421    -0.73700
O1089       O  0.35438973  0.53071485  0.17430937    -0.52900
O1090       O  0.40843102  0.62889979  0.16023275    -0.97600
O1091       O  0.35207509  0.35485827  0.16801979    -0.54800
O1092       O  0.37182683  0.64430281  0.19870537    -0.74200
C1093       C  0.35774259  0.63804525  0.21816638     0.98200
O1094       O  0.22674286  0.56234349  0.24626284    -0.63000
O1095       O  0.11373220  0.60307741  0.15608529    -0.57800
O1096       O  0.17298877  0.57347720  0.22294324    -0.94500
O1097       O  0.15399125  0.60590752  0.19966813    -0.92900
O1098       O  0.06070597  0.50923119  0.16853251    -0.93300
O1099       O  0.08825756  0.47483643  0.19610410    -0.92100
C1100       C  0.14924838  0.58955977  0.21769303     1.17000
H1101       H  0.13601778  0.55868343  0.13470349     0.32900
H1102       H  0.18875194  0.49412312  0.19393186     0.43800
H1103       H  0.27312030  0.64080023  0.19626765     0.37300
H1104       H  0.32986503  0.58321605  0.13609408     0.33800
H1105       H  0.07952019  0.43274807  0.16365939     0.25600
H1106       H  0.35897337  0.51418866  0.16530099     0.31500
H1107       H  0.43339587  0.65232127  0.16530309     0.37400
H1108       H  0.05888998  0.52195666  0.15552400     0.31900
H1109       H  0.09126426  0.58798847  0.16772708     0.30800
H1110       H  0.22436171  0.33799399  0.19146490     0.32500
H1111       H  0.34934890  0.35849484  0.18334676     0.31400
H1112       H  0.10223651  0.49137696  0.20797141     0.35400
H1113       H  0.19939959  0.53804463  0.24929490     0.28200
H1114       H  0.22488203  0.55089057  0.07793893     0.32400
H1115       H  0.40825716  0.34904777  0.14026016     0.35200
H1116       H  0.11661222  0.62655806  0.15796569     0.27900
H1117       H  0.25613575  0.56259004  0.25249397     0.40700
H1118       H  0.21628547  0.45407665  0.14739565     0.30800
H1119       H  0.12793881  0.44289599  0.15094704     0.38400
H1120       H  0.32423534  0.35624656  0.16130510     0.30200
H1121       H  0.37804844  0.55448526  0.16841193     0.30300
H1122       H  0.26577793  0.59048578  0.08009364     0.30600
Zr1123     Zr  0.40358131  0.46246988  0.28955399     2.17500
O1124       O  0.39102885  0.46975363  0.25169926    -0.51800
O1125       O  0.40698733  0.41392830  0.27216619    -0.75000
O1126       O  0.97875002  0.50915799  0.27164298    -0.81800
O1127       O  0.26397352  0.42498153  0.30058647    -0.83500
O1128       O  0.04240838  0.53101785  0.29495649    -0.79100
O1129       O  0.32555102  0.45323789  0.27610745    -0.90800
O1130       O  0.42296019  0.38228838  0.29716269    -0.76700
O1131       O  0.45958399  0.45059134  0.30905680    -0.86200
O1132       O  0.35283557  0.41132508  0.31111265    -0.85900
O1133       O  0.45079597  0.51468388  0.30995521    -0.72700
O1134       O  0.35448368  0.47780889  0.31157795    -0.84800
Zr1135     Zr  0.40997091  0.46614601  0.37403318     2.26400
Zr1136     Zr  0.50710096  0.50222478  0.32954687     2.06300
Zr1137     Zr  0.30525329  0.42697785  0.33390517     2.10000
Zr1138     Zr  0.40875079  0.39992837  0.33110888     1.78800
O1139       O  0.24525391  0.44573490  0.34176092    -0.93600
O1140       O  0.47932716  0.39074069  0.33591604    -0.41400
O1141       O  0.36074870  0.41451679  0.35388766    -0.78100
O1142       O  0.45856790  0.45039249  0.35169498    -0.96700
O1143       O  0.45917196  0.51742920  0.35235557    -0.90000
O1144       O  0.35283893  0.47772456  0.35493695    -0.92900
C1145       C  0.41752950  0.38984754  0.27789214     1.00900
C1146       C  0.28017440  0.43827966  0.28186687     1.13800
C1147       C  0.02363084  0.53034502  0.27657008     1.04600
O1148       O  0.07007088  0.48702816  0.32176030    -0.95000
O1149       O  0.04905643  0.50718516  0.36340439    -0.90800
O1150       O  0.48960213  0.48140787  0.38882758    -0.83900
C1151       C  0.03427859  0.49548766  0.38256466     1.11200
O1152       O  0.40412667  0.56572379  0.30255745    -0.97000
Zr1153     Zr  0.40211137  0.52824533  0.33268985     1.88900
O1154       O  0.40381098  0.51283366  0.39207049    -0.73700
O1155       O  0.06802578  0.56464692  0.33542941    -0.52900
O1156       O  0.47268446  0.58769258  0.33408389    -0.97600
O1157       O  0.32808565  0.53378211  0.33043702    -0.54800
O1158       O  0.39806891  0.54943405  0.36707974    -0.74200
C1159       C  0.39945922  0.53971346  0.38634239     0.98200
O1160       O  0.41922042  0.45686113  0.41198909    -0.63000
O1161       O  0.24330562  0.36602507  0.32757360    -0.57800
O1162       O  0.33781114  0.41525472  0.38984864    -0.94500
O1163       O  0.27116369  0.39907487  0.36865682    -0.92900
O1164       O  0.33893576  0.34099037  0.32654417    -0.93300
O1165       O  0.39677542  0.36038700  0.36154706    -0.92100
C1166       C  0.29165871  0.39661132  0.38593825     1.17000
H1167       H  0.33168461  0.39161069  0.30240739     0.32900
H1168       H  0.47897472  0.44342233  0.35976434     0.43800
H1169       H  0.33142682  0.48132419  0.36439351     0.37300
H1170       H  0.46732480  0.53626790  0.30149535     0.33800
H1171       H  0.47000124  0.36816642  0.32894429     0.25600
H1172       H  0.09886064  0.56778797  0.32892008     0.31500
H1173       H  0.45954459  0.60237879  0.33992371     0.37400
H1174       H  0.35271370  0.66050040  0.32158968     0.31900
H1175       H  0.25647358  0.35167253  0.33448904     0.30800
H1176       H  0.21287322  0.42407351  0.34056780     0.32500
H1177       H  0.31127171  0.52483549  0.34441749     0.31400
H1178       H  0.39889591  0.37427129  0.37414428     0.35400
H1179       H  0.39149313  0.45736226  0.41930564     0.28200
H1180       H  0.41530118  0.46564968  0.24396309     0.32400
H1181       H  0.40025547  0.58495939  0.30872754     0.35200
H1182       H  0.21465263  0.36159213  0.33653322     0.27900
H1183       H  0.41239135  0.43212860  0.41374613     0.40700
H1184       H  0.06175567  0.47676671  0.30743905     0.30800
H1185       H  0.00453645  0.40693057  0.32708609     0.38400
H1186       H  0.30670816  0.51567174  0.32026425     0.30200
H1187       H  0.05791445  0.57850534  0.32594105     0.30300
H1188       H  0.40202216  0.49517602  0.24919652     0.30600
C1189       C  0.07399362  0.80606192  0.09707338     0.02700
C1190       C  0.02768755  0.80429821  0.09771087    -0.13500
C1191       C  0.48907210  0.78041973  0.08432237     0.00200
C1192       C  0.49726512  0.75869418  0.07094341    -0.12000
C1193       C  0.04293891  0.76082504  0.07042366     0.02700
C1194       C  0.08164986  0.78432203  0.08324557    -0.11400
H1195       H  0.02170780  0.82109760  0.10835249     0.08300
H1196       H  0.46833298  0.74130633  0.06037516     0.05800
H1197       H  0.11718865  0.78553075  0.08253795     0.05600
C1198       C  0.35067447  0.87240627  0.09572967     0.02700
C1199       C  0.36330864  0.84588029  0.09739409    -0.13500
C1200       C  0.39874400  0.84604664  0.08388234     0.00200
C1201       C  0.42377000  0.87362751  0.06906407    -0.12000
C1202       C  0.41188674  0.90068981  0.06689108     0.02700
C1203       C  0.37485050  0.90006350  0.08013697    -0.11400
H1204       H  0.34393796  0.82395736  0.10872554     0.08300
H1205       H  0.45088997  0.87316772  0.05849393     0.05800
H1206       H  0.36620248  0.92132410  0.07879277     0.05600
C1207       C  0.22110630  0.69871845  0.06792050     0.02700
C1208       C  0.20626831  0.00673161  0.08492436    -0.13500
C1209       C  0.24142817  0.00548676  0.09827017     0.00200
C1210       C  0.29097791  0.69555672  0.09502734    -0.12000
C1211       C  0.30654871  0.72131738  0.07871850     0.02700
C1212       C  0.27154652  0.72251310  0.06502439    -0.11400
H1213       H  0.16776160  0.98719211  0.08718528     0.08300
H1214       H  0.31773299  0.69464808  0.10577150     0.05800
H1215       H  0.28366289  0.74281054  0.05248390     0.05600
C1216       C  0.44213611  0.78086116  0.08338963     0.79800
N1217       N  0.44313928  0.81245763  0.08407411    -0.78500
C1218       C  0.40065992  0.81358303  0.08248012     0.82200
N1219       N  0.35773504  0.78370130  0.08006743    -0.78500
C1220       C  0.35583570  0.75222526  0.07933810     0.82300
N1221       N  0.39814659  0.75040266  0.08118071    -0.80200
C1222       C  0.41114510  0.98635339  0.93089192     0.02700
C1223       C  0.42244569  0.68296592  0.91747556    -0.13500
C1224       C  0.38765400  0.68100697  0.90221758     0.00200
C1225       C  0.34198274  0.98227114  0.90073295    -0.12000
C1226       C  0.33183086  0.95295966  0.91408146     0.02700
C1227       C  0.36617054  0.95534746  0.92909902    -0.11400
H1228       H  0.45793806  0.70673599  0.91833082     0.08300
H1229       H  0.31502552  0.98020368  0.88904338     0.05800
H1230       H  0.35781908  0.93262192  0.93945491     0.05600
C1231       C  0.21471262  0.76522749  0.93140874     0.02700
C1232       C  0.21308617  0.79704109  0.93064306    -0.13500
C1233       C  0.23983240  0.82321357  0.91495860     0.00200
C1234       C  0.26688703  0.81669690  0.89974387    -0.12000
C1235       C  0.26722282  0.78449587  0.90022682     0.02700
C1236       C  0.24150670  0.75887340  0.91610739    -0.11400
H1237       H  0.19141417  0.80149433  0.94236202     0.08300
H1238       H  0.28778946  0.83667788  0.88753349     0.05800
H1239       H  0.24202161  0.73409068  0.91645203     0.05600
C1240       C  0.19862121  0.89015184  0.91610328     0.79800
N1241       N  0.24212374  0.92067340  0.91472654    -0.78500
C1242       C  0.28484784  0.91985339  0.91328636     0.82200
N1243       N  0.28402733  0.88823221  0.91334825    -0.78500
C1244       C  0.24049552  0.85746319  0.91468834     0.82300
N1245       N  0.19776604  0.85853819  0.91602930    -0.80200
C1246       C  0.10052401  0.91438280  0.92905370     0.02700
C1247       C  0.06564462  0.89548043  0.91351274    -0.13500
C1248       C  0.07424645  0.87462269  0.89929821     0.00200
C1249       C  0.11758143  0.87269070  0.90063798    -0.12000
C1250       C  0.15264094  0.89151151  0.91591680     0.02700
C1251       C  0.14430925  0.91248208  0.93010557    -0.11400
H1252       H  0.03152466  0.89639313  0.91277974     0.08300
H1253       H  0.12416383  0.85653541  0.88968851     0.05800
H1254       H  0.17150654  0.92690406  0.94208798     0.05600
Zr1255     Zr  0.06049480  0.99949604  0.04172352     2.17500
O1256       O  0.05252156  0.98125210  0.07935643    -0.51800
O1257       O  0.05553181  0.71409283  0.05964512    -0.75000
O1258       O  0.13948630  0.68208446  0.05792294    -0.81800
O1259       O  0.42424710  0.92908814  0.03268281    -0.83500
O1260       O  0.20096934  0.71047118  0.03338006    -0.79100
O1261       O  0.48588992  0.95097177  0.05703899    -0.90800
O1262       O  0.04879903  0.75048590  0.03481023    -0.76700
O1263       O  0.11020389  0.71978081  0.02145434    -0.86200
O1264       O  0.00404589  0.67741731  0.02129178    -0.85900
O1265       O  0.11350995  0.98706254  0.02000805    -0.72700
O1266       O  0.01592306  0.94906740  0.01983095    -0.84800
Zr1267     Zr  0.06469349  0.66853667  0.95647238     2.26400
Zr1268     Zr  0.16202709  0.70735309  0.99929729     2.06300
Zr1269     Zr  0.46064671  0.96046083  0.99868234     2.10000
Zr1270     Zr  0.05408732  0.72974051  0.00054819     1.78800
O1271       O  0.40843794  0.89965571  0.98808752    -0.93600
O1272       O  0.12218862  0.79027945  0.00096568    -0.41400
O1273       O  0.01189901  0.68036784  0.97836067    -0.78100
O1274       O  0.10728034  0.71963125  0.97838309    -0.96700
O1275       O  0.12004665  0.99072169  0.97757680    -0.90000
O1276       O  0.01284052  0.94812948  0.97665687    -0.92900
C1277       C  0.05057701  0.74079076  0.05402117     1.00900
C1278       C  0.44159136  0.92959404  0.05143126     1.13800
C1279       C  0.18507010  0.69779255  0.05224158     1.04600
O1280       O  0.22130494  0.76816464  0.00735939    -0.95000
O1281       O  0.20032575  0.73854789  0.96580542    -0.90800
O1282       O  0.14031395  0.71575037  0.94077477    -0.83900
C1283       C  0.18393544  0.73748306  0.94685097     1.11200
O1284       O  0.05322088  0.89975008  0.02947365    -0.97000
Zr1285     Zr  0.06879585  0.93786866  0.99784400     1.88900
O1286       O  0.07317762  0.95428024  0.93970983    -0.73700
O1287       O  0.22419762  0.69076034  0.99131382    -0.52900
O1288       O  0.14016009  0.93083401  0.00590514    -0.97600
O1289       O  0.00785981  0.87758163  0.98887212    -0.54800
O1290       O  0.09629921  0.92685230  0.96473900    -0.74200
C1291       C  0.08946647  0.93323747  0.94542655     0.98200
O1292       O  0.05752555  0.67487424  0.91796557    -0.63000
O1293       O  0.39042024  0.96899046  0.00580051    -0.57800
O1294       O  0.99222403  0.99992929  0.94117220    -0.94500
O1295       O  0.42853701  0.96996259  0.96482580    -0.92900
O1296       O  0.47724542  0.73163381  0.00116818    -0.93300
O1297       O  0.04995462  0.76507069  0.97061095    -0.92100
C1298       C  0.44609516  0.98589994  0.94665635     1.17000
H1299       H  0.48083104  0.67927045  0.03036927     0.32900
H1300       H  0.12390000  0.74173934  0.97040518     0.43800
H1301       H  0.99364387  0.92912572  0.96718174     0.37300
H1302       H  0.13388823  0.98021588  0.02820990     0.33800
H1303       H  0.10673249  0.80476679  0.00436917     0.25600
H1304       H  0.25570244  0.71128778  0.99552848     0.31500
H1305       H  0.13404621  0.90916318  0.99860106     0.37400
H1306       H  0.95586581  0.71311125  0.99065772     0.31900
H1307       H  0.36149538  0.94493509  0.00577323     0.30800
H1308       H  0.38060236  0.89982840  0.98052441     0.32500
H1309       H  0.02642613  0.86450124  0.98882246     0.31400
H1310       H  0.03815994  0.74870436  0.95859052     0.35400
H1311       H  0.06872170  0.70023854  0.91503217     0.28200
H1312       H  0.07402505  0.00292603  0.08717828     0.32400
H1313       H  0.05715813  0.87964701  0.02492010     0.35200
H1314       H  0.39367952  0.97595348  0.02086362     0.27900
H1315       H  0.08320728  0.67095390  0.91139042     0.40700
H1316       H  0.21102482  0.78266734  0.99858231     0.30800
H1317       H  0.14104421  0.79112722  0.01389240     0.38400
H1318       H  0.49770964  0.87826612  0.97412435     0.30200
H1319       H  0.22042652  0.00716743  0.00219632     0.30300
H1320       H  0.06844104  0.96640035  0.08083947     0.30600
C1321       C  0.41042646  0.94462086  0.73255037     0.02700
C1322       C  0.45777598  0.97350768  0.73293103    -0.13500
C1323       C  0.49304324  0.97356511  0.74663929     0.00200
C1324       C  0.48167967  0.94415827  0.75990889    -0.12000
C1325       C  0.43431942  0.91460802  0.76006541     0.02700
C1326       C  0.39820426  0.91485277  0.74635800    -0.11400
H1327       H  0.46767817  0.66268154  0.72244118     0.08300
H1328       H  0.50925421  0.94481954  0.77079165     0.05800
H1329       H  0.36127992  0.89239346  0.74648851     0.05600
C1330       C  0.22730126  0.68020639  0.73761780     0.02700
C1331       C  0.26414259  0.70308883  0.75128776    -0.13500
C1332       C  0.25471558  0.72429224  0.76492103     0.00200
C1333       C  0.20906956  0.72283829  0.76469148    -0.12000
C1334       C  0.17272762  0.70063153  0.75084281     0.02700
C1335       C  0.18145349  0.67893304  0.73753969    -0.11400
H1336       H  0.30000908  0.70476029  0.75108404     0.08300
H1337       H  0.20203146  0.73941232  0.77511025     0.05800
H1338       H  0.15329225  0.99481889  0.72613270     0.05600
C1339       C  0.10675224  0.82397582  0.73020328     0.02700
C1340       C  0.08124240  0.83093320  0.74591785    -0.13500
C1341       C  0.05814530  0.80646118  0.76273993     0.00200
C1342       C  0.05929324  0.77466969  0.76350318    -0.12000
C1343       C  0.08496430  0.76780085  0.74782894     0.02700
C1344       C  0.10910826  0.79261705  0.73128227    -0.11400
H1345       H  0.08031930  0.85556375  0.74532450     0.08300
H1346       H  0.53920158  0.75452346  0.77545789     0.05800
H1347       H  0.12966879  0.78757635  0.71929128     0.05600
C1348       C  0.12677614  0.70165598  0.74964113     0.79800
N1349       N  0.12760458  0.73322374  0.74935506    -0.78500
C1350       C  0.08486183  0.73418051  0.74835192     0.82200
N1351       N  0.04157535  0.70372159  0.74754547    -0.78500
C1352       C  0.04075925  0.67226313  0.74771417     0.82300
N1353       N  0.08334072  0.67116236  0.74879488    -0.80200
Zr1354     Zr  0.41508954  0.80406934  0.78880426     2.17500
O1355       O  0.41956105  0.79535973  0.75072738    -0.51800
O1356       O  0.41945758  0.85670334  0.77061474    -0.75000
O1357       O  0.33670238  0.76318239  0.77354692    -0.81800
O1358       O  0.04645354  0.81969471  0.79762530    -0.83500
O1359       O  0.27695779  0.74878021  0.79862185    -0.79100
O1360       O  0.48669286  0.80645364  0.77250209    -0.90800
O1361       O  0.42619139  0.89515666  0.79581051    -0.76700
O1362       O  0.36733296  0.82091293  0.80987652    -0.86200
O1363       O  0.47403361  0.85241141  0.80870693    -0.85900
O1364       O  0.36432014  0.75204965  0.81089269    -0.72700
O1365       O  0.45894154  0.78166541  0.80997549    -0.84800
Zr1366     Zr  0.41597534  0.79466016  0.87401301     2.26400
Zr1367     Zr  0.31730019  0.76993482  0.83227486     2.06300
Zr1368     Zr  0.01600387  0.82985429  0.83078798     2.10000
Zr1369     Zr  0.42605926  0.86854041  0.83022453     1.78800
O1370       O  0.08051621  0.81483936  0.83813485    -0.93600
O1371       O  0.36047210  0.88355750  0.83239787    -0.41400
O1372       O  0.46845696  0.84614156  0.85212497    -0.78100
O1373       O  0.37403461  0.81891696  0.85275214    -0.96700
O1374       O  0.35907277  0.74647973  0.85374497    -0.90000
O1375       O  0.46557195  0.77909798  0.85313565    -0.92900
C1376       C  0.42417809  0.88638865  0.77638244     1.00900
C1377       C  0.02940754  0.81239504  0.77865850     1.13800
C1378       C  0.29173603  0.74733723  0.77983422     1.04600
O1379       O  0.25753091  0.78981008  0.82598483    -0.95000
O1380       O  0.28071437  0.77141093  0.86585777    -0.90800
O1381       O  0.34086563  0.78690120  0.89064874    -0.83900
C1382       C  0.29742676  0.77933320  0.88477766     1.11200
O1383       O  0.41309164  0.69964267  0.80183908    -0.97000
Zr1384     Zr  0.40869103  0.73134888  0.83245162     1.88900
O1385       O  0.40880764  0.74057597  0.89175046    -0.73700
O1386       O  0.25220213  0.70971049  0.84022957    -0.52900
O1387       O  0.33255177  0.67547515  0.82884384    -0.97600
O1388       O  0.47652644  0.71854508  0.83531519    -0.54800
O1389       O  0.39481193  0.70050126  0.86647319    -0.74200
C1390       C  0.39863825  0.70951579  0.88591699     0.98200
O1391       O  0.42597119  0.80828579  0.91184259    -0.63000
O1392       O  0.07831142  0.89045850  0.82160574    -0.57800
O1393       O  0.99233284  0.83909973  0.88893378    -0.94500
O1394       O  0.05359061  0.85146758  0.86500817    -0.92900
O1395       O  0.50289518  0.92458775  0.82851547    -0.93300
O1396       O  0.43425602  0.90501515  0.86041870    -0.92100
C1397       C  0.03774870  0.85384484  0.88338649     1.17000
H1398       H  0.49660694  0.87171241  0.79943778     0.32900
H1399       H  0.35788372  0.82844714  0.86124930     0.43800
H1400       H  0.48543981  0.77275429  0.86210433     0.37300
H1401       H  0.34351493  0.73131693  0.80295511     0.33800
H1402       H  0.37657669  0.90912962  0.82863121     0.25600
H1403       H  0.22124170  0.71041313  0.83788431     0.31500
H1404       H  0.33630074  0.99080155  0.83627413     0.37400
H1405       H  0.49374559  0.94191359  0.82257609     0.31900
H1406       H  0.07793392  0.90439487  0.83374554     0.30800
H1407       H  0.11178237  0.83754459  0.83698904     0.32500
H1408       H  0.48555350  0.72082630  0.85056210     0.31400
H1409       H  0.42654684  0.88898793  0.87308587     0.35400
H1410       H  0.41476261  0.82578046  0.91379081     0.28200
H1411       H  0.39590595  0.80128350  0.74370219     0.32400
H1412       H  0.40727799  0.00885901  0.80829269     0.35200
H1413       H  0.11013054  0.89067048  0.82283018     0.27900
H1414       H  0.40118584  0.78655688  0.91950989     0.40700
H1415       H  0.27102606  0.81249070  0.83337016     0.30800
H1416       H  0.33907616  0.87199417  0.82010482     0.38400
H1417       H  0.50465616  0.73897645  0.82804982     0.30200
H1418       H  0.25372711  0.69566459  0.82840198     0.30300
H1419       H  0.40541927  0.76957116  0.74905914     0.30600
C1420       C  0.24813933  0.79343737  0.56409002     0.02700
C1421       C  0.29484372  0.79562885  0.56329703    -0.13500
C1422       C  0.33339363  0.81888325  0.57638858     0.00200
C1423       C  0.32521723  0.84034227  0.58999797    -0.12000
C1424       C  0.27909432  0.83841996  0.59094363     0.02700
C1425       C  0.24044555  0.81491325  0.57811436    -0.11400
H1426       H  0.30109427  0.77909167  0.55255708     0.08300
H1427       H  0.35411905  0.85742500  0.60068365     0.05800
H1428       H  0.20471640  0.81337006  0.57905447     0.05600
C1429       C  0.10005500  0.90425914  0.59597310     0.02700
C1430       C  0.11656132  0.93021817  0.57954365    -0.13500
C1431       C  0.08362085  0.93021787  0.56444666     0.00200
C1432       C  0.03342704  0.90428484  0.56572252    -0.12000
C1433       C  0.01652482  0.87787817  0.58188297     0.02700
C1434       C  0.05012406  0.87822574  0.59701782    -0.11400
H1435       H  0.15471976  0.95101036  0.57875928     0.08300
H1436       H  0.00793822  0.90424993  0.55389107     0.05800
H1437       H  0.03749082  0.85750873  0.60930970     0.05600
C1438       C  0.46208596  0.72161151  0.56581282     0.02700
C1439       C  0.95195576  0.74903304  0.56527944    -0.13500
C1440       C  0.42226651  0.75203371  0.58084945     0.00200
C1441       C  0.39846737  0.72474140  0.59616616    -0.12000
C1442       C  0.40673265  0.69565647  0.59666282     0.02700
C1443       C  0.43863192  0.69409350  0.58140645    -0.11400
H1444       H  0.97054059  0.77058647  0.55364611     0.08300
H1445       H  0.37434872  0.72642560  0.60791190     0.05800
H1446       H  0.44598842  0.00515239  0.58165524     0.05600
C1447       C  0.38028949  0.81823730  0.57765403     0.79800
N1448       N  0.42458352  0.84886668  0.57864174    -0.78500
C1449       C  0.46695274  0.84721534  0.58103942     0.82200
N1450       N  0.46457109  0.81539211  0.58250303    -0.78500
C1451       C  0.42112887  0.78514612  0.58164359     0.82300
N1452       N  0.37886714  0.78644043  0.57908650    -0.80200
Zr1453     Zr  0.25458416  0.92394070  0.70655834     2.17500
O1454       O  0.24494417  0.90724044  0.74450164    -0.51800
O1455       O  0.24820020  0.97033285  0.72553381    -0.75000
O1456       O  0.32991362  0.93171545  0.72308346    -0.81800
O1457       O  0.11899245  0.85232509  0.69637066    -0.83500
O1458       O  0.39189132  0.96144230  0.69883828    -0.79100
O1459       O  0.18150782  0.87230216  0.72025027    -0.90800
O1460       O  0.23565928  0.67197053  0.70188710    -0.76700
O1461       O  0.30503919  0.97775195  0.68701182    -0.86200
O1462       O  0.19805504  0.93539881  0.68686818    -0.85900
O1463       O  0.30598075  0.91111735  0.68393371    -0.72700
O1464       O  0.20962977  0.87453307  0.68407313    -0.84800
Zr1465     Zr  0.25810359  0.92981784  0.62159979     2.26400
Zr1466     Zr  0.35657249  0.96541101  0.66432719     2.06300
Zr1467     Zr  0.15490584  0.88694216  0.66372197     2.10000
Zr1468     Zr  0.24817233  0.98855076  0.66687481     1.78800
O1469       O  0.09519454  0.82671660  0.65459429    -0.93600
O1470       O  0.31468960  0.71644570  0.67125755    -0.41400
O1471       O  0.20446427  0.94055390  0.64370350    -0.78100
O1472       O  0.30169605  0.97924054  0.64455016    -0.96700
O1473       O  0.31262339  0.91649734  0.64137418    -0.90000
O1474       O  0.20660405  0.87578616  0.64074188    -0.92900
C1475       C  0.23809906  0.99492055  0.72042635     1.00900
C1476       C  0.13719273  0.85145978  0.71461967     1.13800
C1477       C  0.37525789  0.94637926  0.71733833     1.04600
O1478       O  0.41916332  0.69249414  0.67346736    -0.95000
O1479       O  0.39379197  0.66652526  0.63083894    -0.90800
O1480       O  0.33406576  0.97757672  0.60590358    -0.83900
C1481       C  0.37732222  0.66609426  0.61185071     1.11200
O1482       O  0.25649367  0.82436437  0.69098812    -0.97000
Zr1483     Zr  0.26074156  0.86322765  0.66124975     1.88900
O1484       O  0.26374543  0.88347718  0.60263562    -0.73700
O1485       O  0.41756066  0.94864921  0.65443989    -0.52900
O1486       O  0.33439209  0.85715392  0.66328133    -0.97600
O1487       O  0.19116933  0.80372569  0.65792511    -0.54800
O1488       O  0.27257527  0.84698884  0.62669945    -0.74200
C1489       C  0.27059251  0.85739758  0.60771548     0.98200
O1490       O  0.25081306  0.94410788  0.58423248    -0.63000
O1491       O  0.09142236  0.90143643  0.67343438    -0.57800
O1492       O  0.18095065  0.92103830  0.60681235    -0.94500
O1493       O  0.11784510  0.88889805  0.63006137    -0.92900
O1494       O  0.17328190  0.99280965  0.66423424    -0.93300
O1495       O  0.25256249  0.69637831  0.63881374    -0.92100
C1496       C  0.13505113  0.90451462  0.61193463     1.17000
H1497       H  0.17495313  0.93739242  0.69616086     0.32900
H1498       H  0.31809600  0.66869982  0.63704784     0.43800
H1499       H  0.18705119  0.85710735  0.63113027     0.37300
H1500       H  0.32494919  0.90227333  0.69141091     0.33800
H1501       H  0.29798519  0.72970898  0.67556812     0.25600
H1502       H  0.44962455  0.96951234  0.65767341     0.31500
H1503       H  0.32492153  0.83408121  0.65695559     0.37400
H1504       H  0.18122294  0.68245350  0.66999280     0.31900
H1505       H  0.09373309  0.91890842  0.66238399     0.30800
H1506       H  0.06269397  0.82461727  0.65761719     0.32500
H1507       H  0.18268031  0.80139743  0.64261667     0.31400
H1508       H  0.24481115  0.68243788  0.62574523     0.35400
H1509       H  0.26194450  0.96974809  0.58338005     0.28200
H1510       H  0.26916396  0.92849543  0.75201119     0.32400
H1511       H  0.25649289  0.80384030  0.68451863     0.35200
H1512       H  0.05992167  0.87985848  0.67051479     0.27900
H1513       H  0.27404702  0.61112753  0.57641412     0.40700
H1514       H  0.40292574  0.70696697  0.67112953     0.30800
H1515       H  0.33257355  0.71567010  0.68415779     0.38400
H1516       H  0.16338139  0.80441025  0.66504521     0.30200
H1517       H  0.41370430  0.93048122  0.66531581     0.30300
H1518       H  0.25685209  0.88999877  0.74642242     0.30600
C1519       C  0.42199501  0.93801723  0.42943079     0.02700
C1520       C  0.43013736  0.91687908  0.41530167    -0.13500
C1521       C  0.39187442  0.89403973  0.40206192     0.00200
C1522       C  0.34590397  0.89231684  0.40289300    -0.12000
C1523       C  0.33755540  0.91335097  0.41675837     0.02700
C1524       C  0.37569017  0.93617629  0.43003684    -0.11400
H1525       H  0.46568780  0.91809797  0.41465080     0.08300
H1526       H  0.31707519  0.87538255  0.39213507     0.05800
H1527       H  0.36934510  0.95250621  0.44092391     0.05600
C1528       C  0.07063037  0.83043502  0.39843851     0.02700
C1529       C  0.05465304  0.80578373  0.41567136    -0.13500
C1530       C  0.08885612  0.80465355  0.42967267     0.00200
C1531       C  0.13922500  0.82825704  0.42678898    -0.12000
C1532       C  0.15548080  0.85365175  0.41022760     0.02700
C1533       C  0.12112775  0.85434589  0.39587092    -0.11400
H1534       H  0.51581495  0.78586237  0.41735472     0.08300
H1535       H  0.16548485  0.82780305  0.43802676     0.05800
H1536       H  0.13363952  0.87446165  0.38321431     0.05600
C1537       C  0.19612038  0.67006273  0.42774744     0.02700
C1538       C  0.22202742  0.69877605  0.41304535    -0.13500
C1539       C  0.26178743  0.70110728  0.40104217     0.00200
C1540       C  0.27424546  0.00733282  0.40382681    -0.12000
C1541       C  0.24630740  0.97825965  0.41733773     0.02700
C1542       C  0.20825254  0.97682420  0.42963874    -0.11400
H1543       H  0.21276058  0.71971833  0.41156283     0.08300
H1544       H  0.30331547  0.00789107  0.39409291     0.05800
H1545       H  0.18721403  0.95412825  0.44025974     0.05600
C1546       C  0.29056298  0.91360149  0.41603257     0.79800
N1547       N  0.29119627  0.94500580  0.41722567    -0.78500
C1548       C  0.24858069  0.94593596  0.41561912     0.82200
N1549       N  0.20591970  0.91603336  0.41261114    -0.78500
C1550       C  0.20447148  0.88476610  0.41133186     0.82300
N1551       N  0.24689468  0.88315729  0.41324772    -0.80200
Zr1552     Zr  0.07674894  0.69759876  0.45470708     2.17500
O1553       O  0.08057094  0.70823928  0.41610673    -0.51800
O1554       O  0.00255263  0.64988146  0.43844931    -0.75000
O1555       O  0.13595480  0.68539933  0.43727905    -0.81800
O1556       O  0.05835388  0.77835859  0.46383150    -0.83500
O1557       O  0.15375994  0.98699343  0.46111145    -0.79100
O1558       O  0.08218755  0.75111103  0.43990231    -0.90800
O1559       O  0.44546622  0.95348997  0.46447934    -0.76700
O1560       O  0.05045524  0.64500727  0.47582254    -0.86200
O1561       O  0.01047766  0.69381997  0.47566369    -0.85900
O1562       O  0.14827084  0.70881038  0.47556490    -0.72700
O1563       O  0.10921957  0.74946270  0.47585838    -0.84800
Zr1564     Zr  0.08947951  0.70202853  0.53945332     2.26400
Zr1565     Zr  0.12161026  0.98942960  0.49633469     2.06300
Zr1566     Zr  0.04385628  0.74497098  0.49755654     2.10000
Zr1567     Zr  0.48633565  0.97553411  0.49744774     1.78800
O1568       O  0.07742332  0.80588697  0.50837153    -0.93600
O1569       O  0.46416697  0.91331770  0.49887905    -0.41400
O1570       O  0.01963126  0.69281456  0.51862114    -0.78100
O1571       O  0.05438800  0.98340931  0.51794883    -0.96700
O1572       O  0.15548948  0.70723565  0.51795649    -0.90000
O1573       O  0.11372979  0.75494506  0.51872923    -0.92900
C1574       C  0.45934514  0.95972271  0.44501685     1.00900
C1575       C  0.07401568  0.77587242  0.44537897     1.13800
C1576       C  0.15870223  0.66866683  0.44275870     1.04600
O1577       O  0.09794825  0.92835508  0.48931733    -0.95000
O1578       O  0.11126379  0.95640348  0.53002140    -0.90800
O1579       O  0.09335253  0.98532225  0.55517363    -0.83900
C1580       C  0.09928539  0.95975594  0.54908443     1.11200
O1581       O  0.22020647  0.79420619  0.46450293    -0.97000
Zr1582     Zr  0.17886330  0.75965718  0.49667322     1.88900
O1583       O  0.16528318  0.75017772  0.55515838    -0.73700
O1584       O  0.20480878  0.66795968  0.50455430    -0.52900
O1585       O  0.25728324  0.76129200  0.49086879    -0.97600
O1586       O  0.20208267  0.82171330  0.50003598    -0.54800
O1587       O  0.22365442  0.77590715  0.52928303    -0.74200
C1588       C  0.20974078  0.77151251  0.54870885     0.98200
O1589       O  0.08219529  0.03339537  0.57802460    -0.63000
O1590       O  0.46578355  0.74130558  0.48710559    -0.57800
O1591       O  0.02136576  0.70601821  0.55508423    -0.94500
O1592       O  0.00096012  0.73745715  0.53163999    -0.92900
O1593       O  0.41130054  0.97961508  0.50020821    -0.93300
O1594       O  0.43572758  0.94388631  0.52855272    -0.92100
C1595       C  0.99670633  0.72144861  0.54981363     1.17000
H1596       H  0.98416492  0.69252736  0.46683647     0.32900
H1597       H  0.03826010  0.96160783  0.52620774     0.43800
H1598       H  0.12398207  0.77501923  0.52768209     0.37300
H1599       H  0.17785449  0.71527708  0.46751697     0.33800
H1600       H  0.42846788  0.90029821  0.49582401     0.25600
H1601       H  0.20558743  0.98003161  0.50012525     0.31500
H1602       H  0.28231827  0.78317305  0.49757986     0.37400
H1603       H  0.40389820  0.98416798  0.48546666     0.31900
H1604       H  0.44063368  0.71628763  0.48979581     0.30800
H1605       H  0.04832770  0.80797453  0.51244303     0.32500
H1606       H  0.20189678  0.82543347  0.51551845     0.31400
H1607       H  0.45456059  0.95797743  0.54081508     0.35400
H1608       H  0.55537715  0.00861099  0.58182758     0.28200
H1609       H  0.07348345  0.68569801  0.40966178     0.32400
H1610       H  0.25279086  0.81307023  0.46913164     0.32800
H1611       H  0.45905743  0.75436849  0.49806814     0.27900
H1612       H  0.11221508  0.03380716  0.58364798     0.40700
H1613       H  0.06297749  0.91744731  0.48509660     0.30800
H1614       H  0.47997510  0.91019024  0.48609487     0.38400
H1615       H  0.17358386  0.82346530  0.49443330     0.30200
H1616       H  0.22535071  0.68417568  0.49281609     0.30300
H1617       H  0.11562878  0.72470962  0.41251612     0.30600
C1618       C  0.39611345  0.99326081  0.23406160     0.02700
C1619       C  0.44243216  0.99494087  0.23358341    -0.13500
C1620       C  0.48047269  0.01730356  0.24715850     0.00200
C1621       C  0.47243903  0.70508734  0.26024478    -0.12000
C1622       C  0.42620728  0.70316684  0.26150051     0.02700
C1623       C  0.38805416  0.01422169  0.24839943    -0.11400
H1624       H  0.44891595  0.97886720  0.22255216     0.08300
H1625       H  0.00166720  0.72210459  0.27088198     0.05800
H1626       H  0.35265531  0.01325257  0.24895312     0.05600
C1627       C  0.24633063  0.77061076  0.26514163     0.02700
C1628       C  0.26367967  0.79623461  0.24853151    -0.13500
C1629       C  0.23179755  0.79594539  0.23286942     0.00200
C1630       C  0.18146238  0.77029731  0.23387943    -0.12000
C1631       C  0.16369081  0.74425118  0.25027385     0.02700
C1632       C  0.19640985  0.74473270  0.26593564    -0.11400
H1633       H  0.30185925  0.81703159  0.24798587     0.08300
H1634       H  0.15661215  0.77013749  0.22167545     0.05800
H1635       H  0.18324563  0.72416317  0.27833166     0.05600
C1636       C  0.11344181  0.92234571  0.23285412     0.02700
C1637       C  0.10472175  0.95088194  0.23277183    -0.13500
C1638       C  0.07099664  0.95156977  0.24695800     0.00200
C1639       C  0.04426951  0.92279778  0.26101893    -0.12000
C1640       C  0.05278871  0.89383511  0.26141888     0.02700
C1641       C  0.08779776  0.89375035  0.24745521    -0.11400
H1642       H  0.12540583  0.97333791  0.22194438     0.08300
H1643       H  0.01835969  0.92352068  0.27218883     0.05800
H1644       H  0.09424696  0.87140610  0.24767608     0.05600
C1645       C  0.02769764  0.68330648  0.24704206     0.79800
N1646       N  0.02678790  0.98551505  0.24726598    -0.78500
C1647       C  0.06954475  0.98456688  0.24832029     0.82200
N1648       N  0.11272301  0.68098451  0.24946600    -0.78500
C1649       C  0.11456208  0.71264620  0.24916475     0.82300
N1650       N  0.07183796  0.71404003  0.24793542    -0.80200
Zr1651     Zr  0.22990545  0.89827287  0.12281709     2.17500
O1652       O  0.23315215  0.90781405  0.08412501    -0.51800
O1653       O  0.15495272  0.85101551  0.10645487    -0.75000
O1654       O  0.28997093  0.88703300  0.10543418    -0.81800
O1655       O  0.21058534  0.97864049  0.13216058    -0.83500
O1656       O  0.31064969  0.85685280  0.12975198    -0.79100
O1657       O  0.23651377  0.95242746  0.10840194    -0.90800
O1658       O  0.09713090  0.82124866  0.13212224    -0.76700
O1659       O  0.20381804  0.84548537  0.14372061    -0.86200
O1660       O  0.16308424  0.89362620  0.14361469    -0.85900
O1661       O  0.30088810  0.90975560  0.14417886    -0.72700
O1662       O  0.26158199  0.94986584  0.14411496    -0.84800
Zr1663     Zr  0.24042153  0.90160126  0.20769083     2.26400
Zr1664     Zr  0.27416222  0.85607536  0.16479703     2.06300
Zr1665     Zr  0.19542968  0.94454920  0.16551987     2.10000
Zr1666     Zr  0.13804042  0.84165522  0.16519864     1.78800
O1667       O  0.22764265  0.00537394  0.17619898    -0.93600
O1668       O  0.11352720  0.77899863  0.16514823    -0.41400
O1669       O  0.17084724  0.89228063  0.18663461    -0.78100
O1670       O  0.20613780  0.84981592  0.18600381    -0.96700
O1671       O  0.30739227  0.90761981  0.18645131    -0.90000
O1672       O  0.26449585  0.95456196  0.18720476    -0.92900
C1673       C  0.11141027  0.82756121  0.11272705     1.00900
C1674       C  0.22734485  0.97674753  0.11385705     1.13800
C1675       C  0.31401421  0.87134148  0.11105625     1.04600
O1676       O  0.24528157  0.79501420  0.15546685    -0.95000
O1677       O  0.26108184  0.82216361  0.19849413    -0.90800
O1678       O  0.24341248  0.85131134  0.22359258    -0.83900
C1679       C  0.24866741  0.82550606  0.21750193     1.11200
O1680       O  0.37562622  0.99609124  0.13419390    -0.97000
Zr1681     Zr  0.33056121  0.96037310  0.16549138     1.88900
O1682       O  0.31442459  0.94948998  0.22435928    -0.73700
O1683       O  0.35446261  0.86325353  0.17411203    -0.52900
O1684       O  0.40962901  0.96294887  0.15991617    -0.97600
O1685       O  0.34877226  0.68819295  0.16822948    -0.54800
O1686       O  0.37298310  0.97779797  0.19876731    -0.74200
C1687       C  0.35855103  0.97205788  0.21819063     0.98200
O1688       O  0.22781787  0.89606560  0.24635390    -0.63000
O1689       O  0.11630315  0.93932492  0.15592487    -0.57800
O1690       O  0.17351121  0.90738293  0.22295270    -0.94500
O1691       O  0.15387203  0.93910143  0.19936904    -0.92900
O1692       O  0.06303763  0.84538682  0.16908255    -0.93300
O1693       O  0.08845356  0.80898577  0.19632389    -0.92100
C1694       C  0.14939696  0.92315235  0.21752266     1.17000
H1695       H  0.13686815  0.89229036  0.13471933     0.32900
H1696       H  0.18935474  0.82785277  0.19407534     0.43800
H1697       H  0.27391984  0.97437979  0.19630605     0.37300
H1698       H  0.33075929  0.91680361  0.13621913     0.33800
H1699       H  0.07730655  0.76660543  0.16342862     0.25600
H1700       H  0.35500656  0.84284311  0.16776571     0.31500
H1701       H  0.43427767  0.98531382  0.16629676     0.37400
H1702       H  0.05649013  0.85198076  0.15469229     0.31900
H1703       H  0.09187209  0.91964012  0.16511487     0.30800
H1704       H  0.19243879  0.67282057  0.17820065     0.32500
H1705       H  0.35010117  0.69255922  0.18367845     0.31400
H1706       H  0.10651067  0.82353765  0.20856892     0.35400
H1707       H  0.20091232  0.87162477  0.24942790     0.28200
H1708       H  0.22583548  0.88506660  0.07790868     0.32400
H1709       H  0.40271624  0.68396285  0.13932413     0.35200
H1710       H  0.11725932  0.96070206  0.16155271     0.27900
H1711       H  0.25757213  0.89676435  0.25250455     0.40700
H1712       H  0.21233788  0.78150407  0.16229806     0.30800
H1713       H  0.12626501  0.77575166  0.15145969     0.38400
H1714       H  0.31875389  0.68845340  0.16325889     0.30200
H1715       H  0.37822676  0.88395571  0.16536070     0.30300
H1716       H  0.26813915  0.92417782  0.08035342     0.30600
Zr1717     Zr  0.40468144  0.79641027  0.28934764     2.17500
O1718       O  0.39264652  0.80503307  0.25159518    -0.51800
O1719       O  0.41000473  0.74848888  0.27205986    -0.75000
O1720       O  0.97958782  0.84270232  0.27150531    -0.81800
O1721       O  0.26483823  0.75775348  0.29991870    -0.83500
O1722       O  0.04251607  0.86545870  0.29517988    -0.79100
O1723       O  0.32658236  0.78636278  0.27553806    -0.90800
O1724       O  0.42133910  0.71468531  0.29722380    -0.76700
O1725       O  0.46045129  0.78458706  0.30917094    -0.86200
O1726       O  0.35356455  0.74503551  0.31075416    -0.85900
O1727       O  0.45100775  0.84863135  0.30981508    -0.72700
O1728       O  0.35466034  0.81118846  0.31122581    -0.84800
Zr1729     Zr  0.40967230  0.79994407  0.37385938     2.26400
Zr1730     Zr  0.50726214  0.83643695  0.32966669     2.06300
Zr1731     Zr  0.30538000  0.76021064  0.33348478     2.10000
Zr1732     Zr  0.40908005  0.73372177  0.33108848     1.78800
O1733       O  0.24455051  0.77832972  0.34098753    -0.93600
O1734       O  0.47860648  0.72350145  0.33639582    -0.41400
O1735       O  0.36079964  0.74814801  0.35375647    -0.78100
O1736       O  0.45857979  0.78438887  0.35156155    -0.96700
O1737       O  0.45873466  0.85137003  0.35227831    -0.90000
O1738       O  0.35238328  0.81108141  0.35453694    -0.92900
C1739       C  0.41808956  0.72323653  0.27789503     1.00900
C1740       C  0.28116167  0.77121508  0.28124562     1.13800
C1741       C  0.02415115  0.86445682  0.27664019     1.04600
O1742       O  0.07014154  0.82014959  0.32159473    -0.95000
O1743       O  0.04930879  0.84048209  0.36348335    -0.90800
O1744       O  0.48896541  0.81445560  0.38884856    -0.83900
C1745       C  0.03455535  0.82949228  0.38274450     1.11200
O1746       O  0.40318975  0.89894391  0.30214358    -0.97000
Zr1747     Zr  0.40161183  0.86173729  0.33233646     1.88900
O1748       O  0.40474167  0.84746933  0.39151760    -0.73700
O1749       O  0.06819038  0.89765344  0.33601560    -0.52900
O1750       O  0.47349226  0.92060349  0.33355240    -0.97600
O1751       O  0.32830256  0.86820370  0.33024304    -0.54800
O1752       O  0.39707188  0.88320027  0.36648847    -0.74200
C1753       C  0.39954406  0.87398512  0.38574178     0.98200
O1754       O  0.41907782  0.79039329  0.41175142    -0.63000
O1755       O  0.24381801  0.69902750  0.32744218    -0.57800
O1756       O  0.33682360  0.74972569  0.38989535    -0.94500
O1757       O  0.27081878  0.73173868  0.36808456    -0.92900
O1758       O  0.33873285  0.67475116  0.32729033    -0.93300
O1759       O  0.39794419  0.69556320  0.36215239    -0.92100
C1760       C  0.29095447  0.73023218  0.38570174     1.17000
H1761       H  0.33267730  0.72532370  0.30199291     0.32900
H1762       H  0.47904963  0.77745374  0.35960613     0.43800
H1763       H  0.33083763  0.81460729  0.36395409     0.37300
H1764       H  0.46739410  0.87026028  0.30139002     0.33800
H1765       H  0.46910054  0.70098528  0.32931670     0.25600
H1766       H  0.09876296  0.90125137  0.32898766     0.31500
H1767       H  0.46161462  0.93544750  0.34023689     0.37400
H1768       H  0.35372855  0.99365437  0.32232665     0.31900
H1769       H  0.25405850  0.68481528  0.33653053     0.30800
H1770       H  0.21387967  0.75600389  0.34441172     0.32500
H1771       H  0.30930947  0.85647839  0.34344116     0.31400
H1772       H  0.40812805  0.71155808  0.37434981     0.35400
H1773       H  0.39182233  0.79138469  0.41916566     0.28200
H1774       H  0.41682239  0.80101569  0.24371075     0.32400
H1775       H  0.40258677  0.91941096  0.30838451     0.35200
H1776       H  0.21333321  0.69591335  0.33430251     0.27900
H1777       H  0.41153275  0.76549241  0.41347017     0.40700
H1778       H  0.06325766  0.81170348  0.30681792     0.30800
H1779       H  0.00772211  0.74445405  0.32886206     0.38400
H1780       H  0.30856345  0.85246974  0.31871045     0.30200
H1781       H  0.05736977  0.91173516  0.32712949     0.30300
H1782       H  0.40381782  0.83054058  0.24938046     0.30600
C1783       C  0.57354526  0.13892190  0.09695652     0.02700
C1784       C  0.52724302  0.13709455  0.09756819    -0.13500
C1785       C  0.98907179  0.11368640  0.08441177     0.00200
C1786       C  0.99671583  0.09130415  0.07144176    -0.12000
C1787       C  0.54276100  0.09378130  0.07026442     0.02700
C1788       C  0.58138673  0.11726616  0.08312830    -0.11400
H1789       H  0.52112397  0.15381725  0.10822063     0.08300
H1790       H  0.96752287  0.07359936  0.06107990     0.05800
H1791       H  0.61698677  0.11857140  0.08243195     0.05600
C1792       C  0.84945758  0.20495178  0.09543000     0.02700
C1793       C  0.86265174  0.17871792  0.09718835    -0.13500
C1794       C  0.89873902  0.17931521  0.08389448     0.00200
C1795       C  0.92409635  0.20715809  0.06927766    -0.12000
C1796       C  0.91159864  0.23389059  0.06688838     0.02700
C1797       C  0.87379295  0.23277326  0.07989861    -0.11400
H1798       H  0.84318788  0.15664412  0.10841282     0.08300
H1799       H  0.95177835  0.20703170  0.05891178     0.05800
H1800       H  0.86473790  0.25382080  0.07846447     0.05600
C1801       C  0.72126668  0.03139628  0.06762143     0.02700
C1802       C  0.70597701  0.34013920  0.08470555    -0.13500
C1803       C  0.74075743  0.33881101  0.09826352     0.00200
C1804       C  0.79125462  0.02926833  0.09513663    -0.12000
C1805       C  0.80675185  0.05457672  0.07854888     0.02700
C1806       C  0.77168407  0.05531097  0.06469143    -0.11400
H1807       H  0.66738618  0.32074948  0.08690327     0.08300
H1808       H  0.81804579  0.02878258  0.10604100     0.05800
H1809       H  0.78371535  0.07538550  0.05201996     0.05600
C1810       C  0.94226340  0.11422844  0.08326304     0.79800
N1811       N  0.94326212  0.14581326  0.08396904    -0.78500
C1812       C  0.90076972  0.14691061  0.08233219     0.82200
N1813       N  0.85786926  0.11701907  0.07981146    -0.78500
C1814       C  0.85601267  0.08556462  0.07902126     0.82300
N1815       N  0.89832158  0.08378190  0.08093314    -0.80200
C1816       C  0.91124524  0.31977083  0.93099549     0.02700
C1817       C  0.92314944  0.01609785  0.91731740    -0.13500
C1818       C  0.88821759  0.01441202  0.90224758     0.00200
C1819       C  0.84220941  0.31582530  0.90077014    -0.12000
C1820       C  0.83170039  0.28668182  0.91431708     0.02700
C1821       C  0.86586280  0.28903788  0.92941169    -0.11400
H1822       H  0.95870445  0.03981777  0.91817273     0.08300
H1823       H  0.81543103  0.31373947  0.88897603     0.05800
H1824       H  0.85714806  0.26638795  0.93989577     0.05600
C1825       C  0.71376665  0.09861178  0.93127866     0.02700
C1826       C  0.71262303  0.13061420  0.93075130    -0.13500
C1827       C  0.73968656  0.15698469  0.91520403     0.00200
C1828       C  0.76685385  0.15055794  0.89996088    -0.12000
C1829       C  0.76671735  0.11816666  0.90018109     0.02700
C1830       C  0.74050487  0.09232569  0.91589857    -0.11400
H1831       H  0.69102615  0.13503491  0.94252649     0.08300
H1832       H  0.78807123  0.17071007  0.88788664     0.05800
H1833       H  0.74069017  0.06742997  0.91608776     0.05600
C1834       C  0.69850025  0.22403928  0.91594778     0.79800
N1835       N  0.74203667  0.25453181  0.91468609    -0.78500
C1836       C  0.78472862  0.25364536  0.91351482     0.82200
N1837       N  0.78387501  0.22201427  0.91374563    -0.78500
C1838       C  0.74033408  0.19126263  0.91499731     0.82300
N1839       N  0.69758369  0.19238446  0.91605769    -0.80200
C1840       C  0.60068323  0.24854515  0.92857376     0.02700
C1841       C  0.56585539  0.22975447  0.91297466    -0.13500
C1842       C  0.57438628  0.20879776  0.89880683     0.00200
C1843       C  0.61763986  0.20674119  0.90025155    -0.12000
C1844       C  0.65264204  0.22553435  0.91556061     0.02700
C1845       C  0.64440879  0.24662389  0.92965824    -0.11400
H1846       H  0.53178325  0.23072879  0.91220926     0.08300
H1847       H  0.62416886  0.19046012  0.88938688     0.05800
H1848       H  0.67157599  0.26102800  0.94165861     0.05600
Zr1849     Zr  0.56088525  0.33308134  0.04147769     2.17500
O1850       O  0.55423616  0.31536834  0.07917251    -0.51800
O1851       O  0.55680428  0.04769932  0.05948429    -0.75000
O1852       O  0.63946474  0.01456633  0.05771748    -0.81800
O1853       O  0.92381347  0.26301038  0.03280406    -0.83500
O1854       O  0.70082302  0.04326830  0.03315699    -0.79100
O1855       O  0.98611708  0.28363579  0.05682554    -0.90800
O1856       O  0.54705725  0.08277360  0.03466485    -0.76700
O1857       O  0.60977020  0.05278759  0.02126927    -0.86200
O1858       O  0.50363035  0.01007183  0.02123543    -0.85900
O1859       O  0.61408136  0.32072823  0.01973810    -0.72700
O1860       O  0.51650644  0.28255342  0.01962778    -0.84800
Zr1861     Zr  0.56413156  0.00134408  0.95645238     2.26400
Zr1862     Zr  0.66166562  0.04029851  0.99914089     2.06300
Zr1863     Zr  0.96085046  0.29381038  0.99865271     2.10000
Zr1864     Zr  0.55315928  0.06237955  0.00043138     1.78800
O1865       O  0.90665256  0.23285960  0.98889203    -0.93600
O1866       O  0.62070927  0.12307938  0.00074791    -0.41400
O1867       O  0.51110050  0.01295834  0.97832288    -0.78100
O1868       O  0.60663557  0.05245328  0.97837712    -0.96700
O1869       O  0.62041028  0.32433704  0.97724751    -0.90000
O1870       O  0.51357662  0.28168136  0.97644070    -0.92900
C1871       C  0.55039486  0.07376694  0.05386009     1.00900
C1872       C  0.94144537  0.26287258  0.05141226     1.13800
C1873       C  0.68504910  0.03038466  0.05199711     1.04600
O1874       O  0.72226958  0.10086073  0.00700747    -0.95000
O1875       O  0.69953079  0.07150064  0.96556418    -0.90800
O1876       O  0.63919091  0.04909260  0.94064739    -0.83900
C1877       C  0.68293378  0.07072023  0.94667311     1.11200
O1878       O  0.55504986  0.23381165  0.02945155    -0.97000
Zr1879     Zr  0.56956935  0.27146704  0.99763326     1.88900
O1880       O  0.57272924  0.28791345  0.93937510    -0.73700
O1881       O  0.72335433  0.02343965  0.99075670    -0.52900
O1882       O  0.64086101  0.26393284  0.00499389    -0.97600
O1883       O  0.50825242  0.21093629  0.98933520    -0.54800
O1884       O  0.59716398  0.26114128  0.96429870    -0.74200
C1885       C  0.58964457  0.26724735  0.94501653     0.98200
O1886       O  0.55595537  0.00649516  0.91795748    -0.63000
O1887       O  0.89136675  0.30353020  0.00501697    -0.57800
O1888       O  0.49230776  0.33364782  0.94111915    -0.94500
O1889       O  0.92860220  0.30242964  0.96463825    -0.92900
O1890       O  0.97625168  0.06432944  0.00094306    -0.93300
O1891       O  0.54864769  0.09661859  0.96996514    -0.92100
C1892       C  0.94627763  0.31910306  0.94667182     1.17000
H1893       H  0.98056389  0.01228185  0.03066906     0.32900
H1894       H  0.62317284  0.07462517  0.97046476     0.43800
H1895       H  0.49445005  0.26259316  0.96700436     0.37300
H1896       H  0.63456867  0.31386919  0.02784894     0.33800
H1897       H  0.60469686  0.13754354  0.00312140     0.25600
H1898       H  0.75509129  0.04413660  0.99456128     0.31500
H1899       H  0.63267917  0.24093068  0.99889442     0.37400
H1900       H  0.45370998  0.04456598  0.99223820     0.31900
H1901       H  0.86194161  0.27977685  0.00443645     0.30800
H1902       H  0.87473283  0.23168927  0.98574292     0.32500
H1903       H  0.52652108  0.19763539  0.98974531     0.31400
H1904       H  0.54093127  0.08081943  0.95776761     0.35400
H1905       H  0.56623686  0.03166807  0.91484096     0.28200
H1906       H  0.57660405  0.33701679  0.08683565     0.32400
H1907       H  0.56050264  0.21424760  0.02515276     0.35200
H1908       H  0.89364182  0.30982773  0.02017844     0.27900
H1909       H  0.58214636  0.00309510  0.91143665     0.40700
H1910       H  0.70801935  0.11524266  0.00118030     0.30800
H1911       H  0.63827358  0.12455461  0.01419894     0.38400
H1912       H  0.99766392  0.21134292  0.97472777     0.30200
H1913       H  0.71979906  0.33986374  0.00264249     0.30300
H1914       H  0.56940298  0.30001228  0.08051286     0.30600
C1915       C  0.91065096  0.27778714  0.73261881     0.02700
C1916       C  0.95785330  0.30685586  0.73292947    -0.13500
C1917       C  0.99340789  0.30715541  0.74653794     0.00200
C1918       C  0.98253224  0.27785030  0.75982367    -0.12000
C1919       C  0.93531154  0.24816380  0.76010192     0.02700
C1920       C  0.89887605  0.24814106  0.74647882    -0.11400
H1921       H  0.96726819  0.99597985  0.72231593     0.08300
H1922       H  0.01036359  0.27870631  0.77062303     0.05800
H1923       H  0.86205284  0.22556160  0.74671669     0.05600
C1924       C  0.72743937  0.01308641  0.73744187     0.02700
C1925       C  0.76414701  0.03586600  0.75120791    -0.13500
C1926       C  0.75471932  0.05717356  0.76475541     0.00200
C1927       C  0.70912090  0.05587473  0.76432464    -0.12000
C1928       C  0.67270830  0.03356918  0.75048425     0.02700
C1929       C  0.68152759  0.01178296  0.73728925    -0.11400
H1930       H  0.79995819  0.03743973  0.75111024     0.08300
H1931       H  0.70214928  0.07262174  0.77461398     0.05800
H1932       H  0.65375932  0.32847042  0.72564454     0.05600
C1933       C  0.60729652  0.15771440  0.73007500     0.02700
C1934       C  0.58212977  0.16462970  0.74594743    -0.13500
C1935       C  0.55884010  0.13988862  0.76259924     0.00200
C1936       C  0.55982151  0.10804518  0.76314185    -0.12000
C1937       C  0.58562078  0.10137697  0.74742417     0.02700
C1938       C  0.60967877  0.12635293  0.73095095    -0.11400
H1939       H  0.58134035  0.18931306  0.74552843     0.08300
H1940       H  0.03908486  0.08779019  0.77540209     0.05800
H1941       H  0.63017148  0.12144165  0.71886193     0.05600
C1942       C  0.62672808  0.03474067  0.74916714     0.79800
N1943       N  0.62790808  0.06645148  0.74866632    -0.78500
C1944       C  0.58532692  0.06767161  0.74781051     0.82200
N1945       N  0.54183680  0.03733851  0.74743926    -0.78500
C1946       C  0.54051335  0.00571612  0.74784163     0.82300
N1947       N  0.58296978  0.00432537  0.74872357    -0.80200
Zr1948     Zr  0.91531337  0.13729529  0.78874911     2.17500
O1949       O  0.92040106  0.13056757  0.75045500    -0.51800
O1950       O  0.92082641  0.19040142  0.77072632    -0.75000
O1951       O  0.83683370  0.09612347  0.77347086    -0.81800
O1952       O  0.54790908  0.15513836  0.79702737    -0.83500
O1953       O  0.77694777  0.08184176  0.79848959    -0.79100
O1954       O  0.98661147  0.13889032  0.77267974    -0.90800
O1955       O  0.92715673  0.22879407  0.79587535    -0.76700
O1956       O  0.86763519  0.15423124  0.80973647    -0.86200
O1957       O  0.97409588  0.18549372  0.80876251    -0.85900
O1958       O  0.86452534  0.08545418  0.81093289    -0.72700
O1959       O  0.95907907  0.11481533  0.80990277    -0.84800
Zr1960     Zr  0.91566003  0.12794339  0.87411892     2.26400
Zr1961     Zr  0.81733312  0.10339768  0.83218158     2.06300
Zr1962     Zr  0.51589822  0.16269523  0.83053069     2.10000
Zr1963     Zr  0.92614511  0.20174381  0.83021140     1.78800
O1964       O  0.57781707  0.14512449  0.83782513    -0.93600
O1965       O  0.85860590  0.21472846  0.83225030    -0.41400
O1966       O  0.96833523  0.17926504  0.85215598    -0.78100
O1967       O  0.87397393  0.15226816  0.85280106    -0.96700
O1968       O  0.85901296  0.07983547  0.85368886    -0.90000
O1969       O  0.96537063  0.11226428  0.85332944    -0.92900
C1970       C  0.92545129  0.22006862  0.77646084     1.00900
C1971       C  0.52968568  0.14549142  0.77843078     1.13800
C1972       C  0.79177944  0.08028580  0.77971587     1.04600
O1973       O  0.76073917  0.12598395  0.82534996    -0.95000
O1974       O  0.78024178  0.10469882  0.86578922    -0.90800
O1975       O  0.84048648  0.12060888  0.89057955    -0.83900
C1976       C  0.79699523  0.11295350  0.88470147     1.11200
O1977       O  0.91000803  0.03080725  0.80235293    -0.97000
Zr1978     Zr  0.90885526  0.06467295  0.83248063     1.88900
O1979       O  0.90806460  0.07383294  0.89200434    -0.73700
O1980       O  0.75163640  0.04318124  0.83962774    -0.52900
O1981       O  0.83387431  0.00798500  0.82910655    -0.97600
O1982       O  0.97895558  0.05421830  0.83407315    -0.54800
O1983       O  0.89685725  0.03448350  0.86662375    -0.74200
C1984       C  0.89931044  0.04311441  0.88608586     0.98200
O1985       O  0.92561060  0.14181324  0.91191295    -0.63000
O1986       O  0.57975385  0.22301847  0.82164145    -0.57800
O1987       O  0.49235657  0.17289279  0.88849431    -0.94500
O1988       O  0.55370319  0.18532675  0.86458064    -0.92900
O1989       O  0.00202725  0.25843998  0.82969467    -0.93300
O1990       O  0.93562518  0.23977534  0.85968602    -0.92100
C1991       C  0.53782704  0.18781579  0.88293256     1.17000
H1992       H  0.99681314  0.20470228  0.79948320     0.32900
H1993       H  0.85785863  0.16189825  0.86123415     0.43800
H1994       H  0.98515658  0.10585435  0.86231017     0.37300
H1995       H  0.84370525  0.06467421  0.80303821     0.33800
H1996       H  0.87363387  0.24016232  0.82825088     0.25600
H1997       H  0.72088311  0.04389186  0.83668829     0.31500
H1998       H  0.84131163  0.32330510  0.83624879     0.37400
H1999       H  0.01585018  0.26144479  0.81512714     0.31900
H2000       H  0.57972989  0.23710919  0.83376323     0.30800
H2001       H  0.60937318  0.16556821  0.83291821     0.32500
H2002       H  0.98628296  0.05373477  0.84940530     0.31400
H2003       H  0.92777576  0.22424371  0.87259608     0.35400
H2004       H  0.91461272  0.15944979  0.91375118     0.28200
H2005       H  0.89742869  0.13742958  0.74369949     0.32400
H2006       H  0.90690658  0.34312787  0.80682404     0.35200
H2007       H  0.61114322  0.22261788  0.82295644     0.27900
H2008       H  0.90062325  0.12019338  0.91959950     0.40700
H2009       H  0.77032541  0.14530832  0.83547669     0.30800
H2010       H  0.83731397  0.20253465  0.82005021     0.38400
H2011       H  0.00705589  0.07630561  0.82822560     0.30200
H2012       H  0.75410899  0.02914330  0.82801916     0.30300
H2013       H  0.90544194  0.10485984  0.74822573     0.30600
C2014       C  0.74892773  0.12782041  0.56333987     0.02700
C2015       C  0.79536151  0.12957883  0.56263590    -0.13500
C2016       C  0.83381818  0.15240868  0.57589971     0.00200
C2017       C  0.82575960  0.17387856  0.58957884    -0.12000
C2018       C  0.77978715  0.17223356  0.59045705     0.02700
C2019       C  0.74132849  0.14924257  0.57740799    -0.11400
H2020       H  0.80141629  0.11296939  0.55188017     0.08300
H2021       H  0.85455372  0.19067161  0.60039303     0.05800
H2022       H  0.70573580  0.14793937  0.57828068     0.05600
C2023       C  0.59980555  0.23810596  0.59594777     0.02700
C2024       C  0.61628331  0.26414540  0.57957060    -0.13500
C2025       C  0.58347829  0.26393646  0.56431087     0.00200
C2026       C  0.53334176  0.23784973  0.56544933    -0.12000
C2027       C  0.51633191  0.21162406  0.58171242     0.02700
C2028       C  0.54987309  0.21206663  0.59693481    -0.11400
H2029       H  0.65436684  0.28506921  0.57890430     0.08300
H2030       H  0.50798215  0.23761582  0.55347953     0.05800
H2031       H  0.53722647  0.19135294  0.60922890     0.05600
C2032       C  0.96258461  0.05471707  0.56579083     0.02700
C2033       C  0.45368296  0.08336971  0.56580420    -0.13500
C2034       C  0.92195472  0.08473230  0.58064576     0.00200
C2035       C  0.89784433  0.05715780  0.59578679    -0.12000
C2036       C  0.90633498  0.02814281  0.59627649     0.02700
C2037       C  0.93887427  0.02696495  0.58121196    -0.11400
H2038       H  0.47246138  0.10506146  0.55426656     0.08300
H2039       H  0.87336745  0.05859465  0.60744361     0.05800
H2040       H  0.94617799  0.33764711  0.58184495     0.05600
C2041       C  0.88045406  0.15135456  0.57727191     0.79800
N2042       N  0.92485065  0.18183909  0.57844969    -0.78500
C2043       C  0.96699469  0.17998223  0.58112678     0.82200
N2044       N  0.96430760  0.14806381  0.58263945    -0.78500
C2045       C  0.92080448  0.11790191  0.58152375     0.82300
N2046       N  0.87871911  0.11941789  0.57869375    -0.80200
Zr2047     Zr  0.75489555  0.25704261  0.70647935     2.17500
O2048       O  0.74632413  0.24091839  0.74452021    -0.51800
O2049       O  0.74775498  0.30312780  0.72537730    -0.75000
O2050       O  0.82985344  0.26424902  0.72309005    -0.81800
O2051       O  0.61939934  0.18638016  0.69639870    -0.83500
O2052       O  0.89179515  0.29478811  0.69899671    -0.79100
O2053       O  0.68202115  0.20575708  0.72021319    -0.90800
O2054       O  0.73538541  0.00472788  0.70169998    -0.76700
O2055       O  0.80500899  0.31102010  0.68710657    -0.86200
O2056       O  0.69837342  0.26843678  0.68674826    -0.85900
O2057       O  0.80622026  0.24437913  0.68378628    -0.72700
O2058       O  0.71006413  0.20773812  0.68387504    -0.84800
Zr2059     Zr  0.75809796  0.26292167  0.62140734     2.26400
Zr2060     Zr  0.85655428  0.29888451  0.66442056     2.06300
Zr2061     Zr  0.65529568  0.22012016  0.66348815     2.10000
Zr2062     Zr  0.74818565  0.32163481  0.66678641     1.78800
O2063       O  0.59847281  0.15940501  0.65423390    -0.93600
O2064       O  0.81345375  0.04945569  0.67127965    -0.41400
O2065       O  0.70479537  0.27374052  0.64354887    -0.78100
O2066       O  0.80164796  0.31243692  0.64433497    -0.96700
O2067       O  0.81296372  0.25004279  0.64127197    -0.90000
O2068       O  0.70687059  0.20883562  0.64049827    -0.92900
C2069       C  0.73809232  0.32791468  0.72024723     1.00900
C2070       C  0.63765019  0.18527097  0.71458958     1.13800
C2071       C  0.87524768  0.27932899  0.71741937     1.04600
O2072       O  0.91669645  0.02670629  0.67230945    -0.95000
O2073       O  0.89378450  0.99819838  0.63016884    -0.90800
O2074       O  0.83424458  0.31036946  0.60588083    -0.83900
C2075       C  0.87679140  0.99843614  0.61138365     1.11200
O2076       O  0.76031734  0.15836837  0.69046185    -0.97000
Zr2077     Zr  0.76141518  0.19661509  0.66099316     1.88900
O2078       O  0.76489415  0.21731916  0.60228596    -0.73700
O2079       O  0.92180952  0.28562740  0.65599966    -0.52900
O2080       O  0.83736604  0.19349057  0.66272474    -0.97600
O2081       O  0.69317209  0.13632256  0.65871609    -0.54800
O2082       O  0.77189611  0.17994667  0.62626930    -0.74200
C2083       C  0.77102226  0.19093125  0.60730502     0.98200
O2084       O  0.75031170  0.27678247  0.58402249    -0.63000
O2085       O  0.58983414  0.23338671  0.67175500    -0.57800
O2086       O  0.68069724  0.25398133  0.60654781    -0.94500
O2087       O  0.61780471  0.22299926  0.63010567    -0.92900
O2088       O  0.67278158  0.32527274  0.66460925    -0.93300
O2089       O  0.75102514  0.02887221  0.63836101    -0.92100
C2090       C  0.63486993  0.23815396  0.61185211     1.17000
H2091       H  0.67530682  0.27043098  0.69605333     0.32900
H2092       H  0.81787921  0.00170522  0.63671627     0.43800
H2093       H  0.68738554  0.19006895  0.63092008     0.37300
H2094       H  0.82533391  0.23562106  0.69121945     0.33800
H2095       H  0.79630465  0.06263277  0.67511813     0.25600
H2096       H  0.95241437  0.30658464  0.66057507     0.31500
H2097       H  0.83124215  0.17300244  0.65411774     0.37400
H2098       H  0.67861978  0.01336407  0.67178126     0.31900
H2099       H  0.55911549  0.21208804  0.66765582     0.30800
H2100       H  0.56583155  0.15510121  0.65920783     0.32500
H2101       H  0.68466800  0.13304641  0.64342139     0.31400
H2102       H  0.74021252  0.01417028  0.62557356     0.35400
H2103       H  0.76199399  0.30249486  0.58305818     0.28200
H2104       H  0.77057719  0.26231453  0.75191211     0.32400
H2105       H  0.76423653  0.13944540  0.68386644     0.35200
H2106       H  0.58814655  0.23314958  0.68751326     0.27900
H2107       H  0.77536457  0.94212261  0.57622240     0.40700
H2108       H  0.90018495  0.04058656  0.66854579     0.30800
H2109       H  0.83043840  0.04874234  0.68450148     0.38400
H2110       H  0.66499121  0.13685490  0.66555587     0.30200
H2111       H  0.91709391  0.26657605  0.66636284     0.30300
H2112       H  0.75826140  0.22370523  0.74652781     0.30600
C2113       C  0.92201560  0.27203124  0.42958564     0.02700
C2114       C  0.93010793  0.25070218  0.41556093    -0.13500
C2115       C  0.89183019  0.22771781  0.40235376     0.00200
C2116       C  0.84594798  0.22610030  0.40312232    -0.12000
C2117       C  0.83783013  0.24751138  0.41677419     0.02700
C2118       C  0.87587719  0.27039659  0.43003194    -0.11400
H2119       H  0.96562247  0.25186424  0.41498043     0.08300
H2120       H  0.81708234  0.20906272  0.39241045     0.05800
H2121       H  0.86957556  0.28690674  0.44079121     0.05600
C2122       C  0.57134494  0.16463096  0.39844100     0.02700
C2123       C  0.55566688  0.14029616  0.41582470    -0.13500
C2124       C  0.59008346  0.13927738  0.42973702     0.00200
C2125       C  0.64043062  0.16272029  0.42657342    -0.12000
C2126       C  0.65632526  0.18798704  0.40993163     0.02700
C2127       C  0.62176176  0.18852042  0.39567073    -0.11400
H2128       H  0.01547655  0.11926439  0.41707378     0.08300
H2129       H  0.66693871  0.16231731  0.43768202     0.05800
H2130       H  0.63405904  0.20849050  0.38292934     0.05600
C2131       C  0.69586485  0.00405694  0.42755168     0.02700
C2132       C  0.72190703  0.03276277  0.41290930    -0.13500
C2133       C  0.76162012  0.03495392  0.40098355     0.00200
C2134       C  0.77477869  0.34180832  0.40376257    -0.12000
C2135       C  0.74677046  0.31255340  0.41711865     0.02700
C2136       C  0.70861070  0.31091105  0.42945026    -0.11400
H2137       H  0.71290320  0.05384592  0.41148056     0.08300
H2138       H  0.80390853  0.34250429  0.39400214     0.05800
H2139       H  0.68754242  0.28807968  0.43997095     0.05600
C2140       C  0.79106761  0.24794186  0.41587954     0.79800
N2141       N  0.79173445  0.27936433  0.41703409    -0.78500
C2142       C  0.74916057  0.28030983  0.41521982     0.82200
N2143       N  0.70657205  0.25042039  0.41206742    -0.78500
C2144       C  0.70517947  0.21915536  0.41087937     0.82300
N2145       N  0.74750291  0.21754025  0.41300269    -0.80200
Zr2146     Zr  0.57688751  0.03157675  0.45447991     2.17500
O2147       O  0.57955736  0.04172778  0.41585327    -0.51800
O2148       O  0.50240181  0.98357937  0.43853604    -0.75000
O2149       O  0.63548647  0.01906653  0.43695458    -0.81800
O2150       O  0.55849571  0.11245039  0.46377935    -0.83500
O2151       O  0.65413422  0.32093767  0.46111488    -0.79100
O2152       O  0.58399781  0.08591451  0.44006303    -0.90800
O2153       O  0.94490257  0.28781594  0.46467315    -0.76700
O2154       O  0.55157960  0.97925849  0.47570392    -0.86200
O2155       O  0.51049551  0.02708175  0.47556340    -0.85900
O2156       O  0.64877120  0.04330393  0.47518060    -0.72700
O2157       O  0.60873391  0.08326455  0.47564887    -0.84800
Zr2158     Zr  0.59052705  0.03621277  0.53928824     2.26400
Zr2159     Zr  0.62172331  0.32333525  0.49628892     2.06300
Zr2160     Zr  0.54305620  0.07822893  0.49733545     2.10000
Zr2161     Zr  0.98615827  0.30881384  0.49772377     1.78800
O2162       O  0.57264381  0.13883368  0.50788586    -0.93600
O2163       O  0.96075282  0.24604764  0.49790883    -0.41400
O2164       O  0.52003861  0.02642580  0.51867424    -0.78100
O2165       O  0.55451262  0.31739443  0.51789344    -0.96700
O2166       O  0.65670625  0.04203248  0.51766856    -0.90000
O2167       O  0.61340234  0.08879692  0.51839501    -0.92900
C2168       C  0.95918295  0.29367203  0.44525565     1.00900
C2169       C  0.57526176  0.11046799  0.44545711     1.13800
C2170       C  0.65880813  0.00283090  0.44255542     1.04600
O2171       O  0.59331081  0.26163684  0.48888332    -0.95000
O2172       O  0.61205187  0.29050131  0.53000783    -0.90800
O2173       O  0.59246715  0.31876536  0.55499027    -0.83900
C2174       C  0.59914879  0.29349723  0.54897332     1.11200
O2175       O  0.72017880  0.13226090  0.46519380    -0.97000
Zr2176     Zr  0.67881524  0.09419677  0.49626451     1.88900
O2177       O  0.66589950  0.08509325  0.55461210    -0.73700
O2178       O  0.70574450  0.00174010  0.50421859    -0.52900
O2179       O  0.75669462  0.09611384  0.48844611    -0.97600
O2180       O  0.70036711  0.15572626  0.50074981    -0.54800
O2181       O  0.72426365  0.10974726  0.52866232    -0.74200
C2182       C  0.71041178  0.10594394  0.54806635     0.98200
O2183       O  0.58112634  0.36631830  0.57805040    -0.63000
O2184       O  0.96591585  0.07507080  0.48735434    -0.57800
O2185       O  0.52346811  0.04097588  0.55531300    -0.94500
O2186       O  0.50109640  0.07107537  0.53167374    -0.92900
O2187       O  0.91151485  0.31285198  0.50237094    -0.93300
O2188       O  0.93702728  0.27672188  0.52907504    -0.92100
C2189       C  0.49800547  0.05576842  0.55001350     1.17000
H2190       H  0.48399199  0.02546340  0.46674213     0.32900
H2191       H  0.53829644  0.29545916  0.52601952     0.43800
H2192       H  0.62331490  0.10889605  0.52729614     0.37300
H2193       H  0.67821568  0.04991968  0.46698685     0.33800
H2194       H  0.92488547  0.23400613  0.49519766     0.25600
H2195       H  0.70925358  0.31785352  0.49475526     0.31500
H2196       H  0.78185338  0.11625995  0.49645498     0.37400
H2197       H  0.90212096  0.31650000  0.48781440     0.31900
H2198       H  0.94074501  0.05605000  0.49666585     0.30800
H2199       H  0.54253387  0.13981347  0.51164976     0.32500
H2200       H  0.70328880  0.15942027  0.51629922     0.31400
H2201       H  0.95477793  0.29184374  0.54116796     0.35400
H2202       H  0.05648878  0.34361907  0.58235306     0.28200
H2203       H  0.57174013  0.01898807  0.40947665     0.32400
H2204       H  0.75313462  0.15018099  0.47010261     0.32800
H2205       H  0.96833821  0.09711087  0.49265592     0.27900
H2206       H  0.61103507  0.36663928  0.58373908     0.40700
H2207       H  0.55838060  0.24906141  0.49358330     0.30800
H2208       H  0.97529819  0.24289276  0.48472005     0.38400
H2209       H  0.67034711  0.15676233  0.49670789     0.30200
H2210       H  0.72701609  0.02064456  0.49379748     0.30300
H2211       H  0.61459794  0.05783101  0.41204205     0.30600
C2212       C  0.89521598  0.32551918  0.23421324     0.02700
C2213       C  0.94140100  0.32706853  0.23364702    -0.13500
C2214       C  0.97998189  0.35000041  0.24677128     0.00200
C2215       C  0.97180459  0.03836293  0.26069751    -0.12000
C2216       C  0.92565049  0.03657014  0.26166356     0.02700
C2217       C  0.88752907  0.34676336  0.24850698    -0.11400
H2218       H  0.94745486  0.31057166  0.22278841     0.08300
H2219       H  0.50067069  0.05472636  0.27211712     0.05800
H2220       H  0.85206498  0.34566094  0.24925707     0.05600
C2221       C  0.74644540  0.10476213  0.26559338     0.02700
C2222       C  0.76382860  0.13004049  0.24877549    -0.13500
C2223       C  0.73206645  0.12922350  0.23287632     0.00200
C2224       C  0.68177697  0.10344997  0.23393297    -0.12000
C2225       C  0.66385521  0.07787186  0.25061168     0.02700
C2226       C  0.69655503  0.07873855  0.26640565    -0.11400
H2227       H  0.80196059  0.15092272  0.24821582     0.08300
H2228       H  0.65698204  0.10291963  0.22159075     0.05800
H2229       H  0.68340124  0.05838413  0.27893223     0.05600
C2230       C  0.61269301  0.25457356  0.23296746     0.02700
C2231       C  0.60329814  0.28280955  0.23268397    -0.13500
C2232       C  0.56959081  0.28347949  0.24688482     0.00200
C2233       C  0.54322970  0.25481068  0.26104586    -0.12000
C2234       C  0.55240716  0.22614368  0.26163995     0.02700
C2235       C  0.58768078  0.22621252  0.24778006    -0.11400
H2236       H  0.62364888  0.30517217  0.22175505     0.08300
H2237       H  0.51722344  0.25545577  0.27219480     0.05800
H2238       H  0.59465996  0.20410746  0.24818551     0.05600
C2239       C  0.52763921  0.01698148  0.24773956     0.79800
N2240       N  0.52599500  0.31791820  0.24727689    -0.78500
C2241       C  0.56849572  0.31660849  0.24839241     0.82200
N2242       N  0.61273397  0.01460066  0.24932561    -0.78500
C2243       C  0.61460506  0.04625554  0.24961704     0.82300
N2244       N  0.57182745  0.04767116  0.24883229    -0.80200
Zr2245     Zr  0.72901667  0.23146402  0.12267741     2.17500
O2246       O  0.73403636  0.24253316  0.08409732    -0.51800
O2247       O  0.65413313  0.18432085  0.10627611    -0.75000
O2248       O  0.78824786  0.21923225  0.10518182    -0.81800
O2249       O  0.71012192  0.31213001  0.13227199    -0.83500
O2250       O  0.80913579  0.18909294  0.12944992    -0.79100
O2251       O  0.73473563  0.28538481  0.10831587    -0.90800
O2252       O  0.59659564  0.15411862  0.13196695    -0.76700
O2253       O  0.70252917  0.17852028  0.14345169    -0.86200
O2254       O  0.66226042  0.22693268  0.14353374    -0.85900
O2255       O  0.79988629  0.24235065  0.14392146    -0.72700
O2256       O  0.76122109  0.28293109  0.14417784    -0.84800
Zr2257     Zr  0.74003603  0.23454499  0.20750157     2.26400
Zr2258     Zr  0.77268817  0.18853788  0.16449803     2.06300
Zr2259     Zr  0.69497417  0.27776783  0.16553628     2.10000
Zr2260     Zr  0.63708980  0.17482867  0.16504116     1.78800
O2261       O  0.72540824  0.33867319  0.17576359    -0.93600
O2262       O  0.61345249  0.11240081  0.16467931    -0.41400
O2263       O  0.67042201  0.22541533  0.18654244    -0.78100
O2264       O  0.70502529  0.18261557  0.18593591    -0.96700
O2265       O  0.80661711  0.23996618  0.18625790    -0.90000
O2266       O  0.76441552  0.28763301  0.18701057    -0.92900
C2267       C  0.61081639  0.16056253  0.11257620     1.00900
C2268       C  0.72627177  0.30999063  0.11387252     1.13800
C2269       C  0.81242394  0.20358533  0.11075201     1.04600
O2270       O  0.74371352  0.12747411  0.15518175    -0.95000
O2271       O  0.75935486  0.15445334  0.19810903    -0.90800
O2272       O  0.74507206  0.18497952  0.22345828    -0.83900
C2273       C  0.74876662  0.15855347  0.21728547     1.11200
O2274       O  0.87558831  0.32752460  0.13387230    -0.97000
Zr2275     Zr  0.83034813  0.29278792  0.16541244     1.88900
O2276       O  0.81321396  0.28250404  0.22441047    -0.73700
O2277       O  0.85259796  0.19533282  0.17416617    -0.52900
O2278       O  0.90799590  0.29301109  0.16025683    -0.97600
O2279       O  0.85126238  0.02146733  0.16788824    -0.54800
O2280       O  0.87235611  0.30932949  0.19893657    -0.74200
C2281       C  0.85764197  0.30432174  0.21832518     0.98200
O2282       O  0.72737973  0.22938216  0.24613116    -0.63000
O2283       O  0.61500758  0.27134047  0.15617711    -0.57800
O2284       O  0.67306561  0.23990925  0.22302170    -0.94500
O2285       O  0.65308672  0.27146385  0.19947242    -0.92900
O2286       O  0.56110769  0.17753509  0.16777987    -0.93300
O2287       O  0.58635030  0.14185192  0.19583196    -0.92100
C2288       C  0.64873335  0.25552246  0.21762453     1.17000
H2289       H  0.63594609  0.22559946  0.13470033     0.32900
H2290       H  0.68836176  0.16087060  0.19423222     0.43800
H2291       H  0.77421243  0.30761494  0.19601596     0.37300
H2292       H  0.82956995  0.24921011  0.13586326     0.33800
H2293       H  0.57762308  0.09999749  0.16186458     0.25600
H2294       H  0.85232798  0.17415845  0.16857664     0.31500
H2295       H  0.93306653  0.31444864  0.16733174     0.37400
H2296       H  0.53478300  0.15385496  0.16370321     0.31900
H2297       H  0.59095096  0.25114869  0.16517958     0.30800
H2298       H  0.69771849  0.01044665  0.16995388     0.32500
H2299       H  0.84834864  0.02521204  0.18318180     0.31400
H2300       H  0.59930784  0.15862279  0.20762518     0.35400
H2301       H  0.70115066  0.20474583  0.24926981     0.28200
H2302       H  0.72497719  0.21965354  0.07759696     0.32400
H2303       H  0.90556632  0.01382115  0.13886640     0.35200
H2304       H  0.61509299  0.29223271  0.16211644     0.27900
H2305       H  0.75751425  0.23077626  0.25233583     0.40700
H2306       H  0.71081318  0.11398461  0.16204828     0.30800
H2307       H  0.62843199  0.10981835  0.15144757     0.38400
H2308       H  0.82343841  0.02273523  0.16106180     0.30200
H2309       H  0.87651801  0.21515827  0.16490546     0.30300
H2310       H  0.76941500  0.25786269  0.08053220     0.30600
Zr2311     Zr  0.90454871  0.12985473  0.28957824     2.17500
O2312       O  0.89245038  0.13762456  0.25172547    -0.51800
O2313       O  0.90783683  0.08121518  0.27218050    -0.75000
O2314       O  0.47891665  0.17575028  0.27199295    -0.81800
O2315       O  0.76506246  0.09234120  0.30047732    -0.83500
O2316       O  0.54278511  0.19740684  0.29521906    -0.79100
O2317       O  0.82668676  0.12061064  0.27601401    -0.90800
O2318       O  0.92238711  0.04902807  0.29732672    -0.76700
O2319       O  0.96035492  0.11794410  0.30925937    -0.86200
O2320       O  0.85350448  0.07868207  0.31113654    -0.85900
O2321       O  0.95136657  0.18224350  0.30989717    -0.72700
O2322       O  0.85515771  0.14508328  0.31152606    -0.84800
Zr2323     Zr  0.91005355  0.13365908  0.37407610     2.26400
Zr2324     Zr  0.00745126  0.16979346  0.32968107     2.06300
Zr2325     Zr  0.80583743  0.09433302  0.33388665     2.10000
Zr2326     Zr  0.90915211  0.06726993  0.33129258     1.78800
O2327       O  0.74534694  0.11254071  0.34194533    -0.93600
O2328       O  0.97923856  0.05762839  0.33645125    -0.41400
O2329       O  0.86105086  0.08183503  0.35404424    -0.78100
O2330       O  0.95864431  0.11791749  0.35174116    -0.96700
O2331       O  0.95924747  0.18493679  0.35237219    -0.90000
O2332       O  0.85316900  0.14521553  0.35479972    -0.92900
C2333       C  0.91744358  0.05669691  0.27801119     1.00900
C2334       C  0.78131202  0.10562807  0.28176653     1.13800
C2335       C  0.52388400  0.19684265  0.27687502     1.04600
O2336       O  0.57158049  0.15483459  0.32228509    -0.95000
O2337       O  0.54976965  0.17434850  0.36352395    -0.90800
O2338       O  0.98981919  0.14891654  0.38882368    -0.83900
C2339       C  0.53506528  0.16334752  0.38277510     1.11200
O2340       O  0.90267197  0.23221304  0.30213936    -0.97000
Zr2341     Zr  0.90240040  0.19572872  0.33251085     1.88900
O2342       O  0.90348518  0.18056686  0.39178452    -0.73700
O2343       O  0.56544406  0.23188248  0.33561336    -0.52900
O2344       O  0.97452295  0.25457532  0.33343467    -0.97600
O2345       O  0.82843378  0.20141220  0.33044674    -0.54800
O2346       O  0.89843400  0.21744869  0.36674460    -0.74200
C2347       C  0.89953584  0.20763138  0.38602180     0.98200
O2348       O  0.92051869  0.12368730  0.41178546    -0.63000
O2349       O  0.74373744  0.03330140  0.32792473    -0.57800
O2350       O  0.83737268  0.08295744  0.38990391    -0.94500
O2351       O  0.77100556  0.06675789  0.36855220    -0.92900
O2352       O  0.83823614  0.00854613  0.32758637    -0.93300
O2353       O  0.89937335  0.02806643  0.36164051    -0.92100
C2354       C  0.79124947  0.06426765  0.38588079     1.17000
H2355       H  0.83238738  0.05895233  0.30243609     0.32900
H2356       H  0.97895933  0.11089574  0.35983401     0.43800
H2357       H  0.83166554  0.14880129  0.36420756     0.37300
H2358       H  0.96790223  0.20381485  0.30142405     0.33800
H2359       H  0.97057959  0.03567410  0.32886645     0.25600
H2360       H  0.59752512  0.23537951  0.33040812     0.31500
H2361       H  0.96301638  0.26949361  0.34030486     0.37400
H2362       H  0.85293080  0.32688037  0.32276496     0.31900
H2363       H  0.75279505  0.01902799  0.33757829     0.30800
H2364       H  0.71562468  0.09055660  0.34679942     0.32500
H2365       H  0.80957286  0.18962155  0.34366233     0.31400
H2366       H  0.89268977  0.03894980  0.37392835     0.35400
H2367       H  0.89341762  0.12455255  0.41942016     0.28200
H2368       H  0.91690493  0.13372976  0.24397991     0.32400
H2369       H  0.90528567  0.25383263  0.30823953     0.35200
H2370       H  0.71303300  0.03081600  0.33417036     0.27900
H2371       H  0.91295865  0.09875781  0.41328210     0.40700
H2372       H  0.56193164  0.14249771  0.30859918     0.30800
H2373       H  0.50532585  0.07521455  0.32528720     0.38400
H2374       H  0.80879785  0.18554056  0.31894451     0.30200
H2375       H  0.55626006  0.24499504  0.32507623     0.30300
H2376       H  0.90329378  0.16304912  0.24934295     0.30600
C2377       C  0.57321576  0.47219628  0.09689426     0.02700
C2378       C  0.52697325  0.47057737  0.09710504    -0.13500
C2379       C  0.98896456  0.44737464  0.08435199     0.00200
C2380       C  0.99687357  0.42520983  0.07123653    -0.12000
C2381       C  0.54297302  0.42698212  0.07025275     0.02700
C2382       C  0.58122912  0.45035038  0.08330206    -0.11400
H2383       H  0.52063660  0.48733580  0.10763549     0.08300
H2384       H  0.96781476  0.40763770  0.06078251     0.05800
H2385       H  0.61673202  0.45146724  0.08290224     0.05600
C2386       C  0.84919422  0.53892234  0.09530667     0.02700
C2387       C  0.86174706  0.51231660  0.09689751    -0.13500
C2388       C  0.89782168  0.51276325  0.08362789     0.00200
C2389       C  0.92345157  0.54068979  0.06908028    -0.12000
C2390       C  0.91150278  0.56773138  0.06683971     0.02700
C2391       C  0.87389677  0.56682838  0.07987039    -0.11400
H2392       H  0.84201242  0.49020778  0.10806529     0.08300
H2393       H  0.95107931  0.54049077  0.05871624     0.05800
H2394       H  0.86528985  0.58810897  0.07852436     0.05600
C2395       C  0.72136071  0.36501226  0.06763708     0.02700
C2396       C  0.70599193  0.67379680  0.08488973    -0.13500
C2397       C  0.74101899  0.67238290  0.09826182     0.00200
C2398       C  0.79109141  0.36230274  0.09503420    -0.12000
C2399       C  0.80668989  0.38787705  0.07859913     0.02700
C2400       C  0.77177652  0.38882199  0.06475937    -0.11400
H2401       H  0.66742434  0.65440790  0.08716425     0.08300
H2402       H  0.81779893  0.36162924  0.10590978     0.05800
H2403       H  0.78394651  0.40904646  0.05217275     0.05600
C2404       C  0.94205956  0.44787186  0.08327708     0.79800
N2405       N  0.94283638  0.47943185  0.08386521    -0.78500
C2406       C  0.90017178  0.48037268  0.08225044     0.82200
N2407       N  0.85739239  0.45034211  0.07988267    -0.78500
C2408       C  0.85578556  0.41894784  0.07921771     0.82300
N2409       N  0.89820644  0.41733150  0.08109503    -0.80200
C2410       C  0.91148555  0.65353893  0.93099257     0.02700
C2411       C  0.92247351  0.34917446  0.91714857    -0.13500
C2412       C  0.88761203  0.34734319  0.90199143     0.00200
C2413       C  0.84232662  0.64934401  0.90077919    -0.12000
C2414       C  0.83210932  0.62020310  0.91424681     0.02700
C2415       C  0.86639737  0.62262286  0.92929544    -0.11400
H2416       H  0.95807647  0.37286874  0.91791157     0.08300
H2417       H  0.81546886  0.64717192  0.88900185     0.05800
H2418       H  0.85798027  0.59993866  0.93969993     0.05600
C2419       C  0.71452484  0.43213702  0.93124006     0.02700
C2420       C  0.71386121  0.46428857  0.93079153    -0.13500
C2421       C  0.74108096  0.49062375  0.91526921     0.00200
C2422       C  0.76819728  0.48412526  0.90003883    -0.12000
C2423       C  0.76754882  0.45155647  0.90017797     0.02700
C2424       C  0.74103944  0.42568930  0.91583764    -0.11400
H2425       H  0.69239262  0.46881836  0.94257902     0.08300
H2426       H  0.78958924  0.50428262  0.88799479     0.05800
H2427       H  0.74086786  0.40067026  0.91598281     0.05600
C2428       C  0.69908852  0.55715297  0.91630148     0.79800
N2429       N  0.74243985  0.58778053  0.91486431    -0.78500
C2430       C  0.78528475  0.58711523  0.91344815     0.82200
N2431       N  0.78478287  0.55561882  0.91358142    -0.78500
C2432       C  0.74144960  0.52477194  0.91500549     0.82300
N2433       N  0.69856498  0.52564805  0.91633045    -0.80200
C2434       C  0.60001252  0.58049636  0.92901704     0.02700
C2435       C  0.56552610  0.56165760  0.91332419    -0.13500
C2436       C  0.57468354  0.54109583  0.89907075     0.00200
C2437       C  0.61819903  0.53941560  0.90056015    -0.12000
C2438       C  0.65290878  0.55824371  0.91597002     0.02700
C2439       C  0.64402809  0.57893247  0.93015992    -0.11400
H2440       H  0.53127844  0.56238323  0.91250658     0.08300
H2441       H  0.62519888  0.52344020  0.88963342     0.05800
H2442       H  0.67098454  0.59339649  0.94221802     0.05600
Zr2443     Zr  0.56023265  0.66612184  0.04153208     2.17500
O2444       O  0.55199711  0.64649072  0.07887350    -0.51800
O2445       O  0.55634841  0.38052354  0.05956842    -0.75000
O2446       O  0.63959239  0.34743142  0.05754760    -0.81800
O2447       O  0.92409381  0.59722153  0.03291092    -0.83500
O2448       O  0.70128447  0.37839570  0.03346689    -0.79100
O2449       O  0.98634514  0.61737009  0.05694038    -0.90800
O2450       O  0.54890192  0.41662158  0.03475203    -0.76700
O2451       O  0.61003882  0.38633961  0.02141179    -0.86200
O2452       O  0.50406401  0.34338538  0.02120607    -0.85900
O2453       O  0.61295582  0.65310574  0.01998154    -0.72700
O2454       O  0.51571542  0.61556503  0.01977350    -0.84800
Zr2455     Zr  0.56489605  0.33515294  0.95654618     2.26400
Zr2456     Zr  0.66245649  0.37452188  0.99924300     2.06300
Zr2457     Zr  0.96106857  0.62783593  0.99873960     2.10000
Zr2458     Zr  0.55347166  0.39582973  0.00050110     1.78800
O2459       O  0.90694421  0.56653492  0.98955123    -0.93600
O2460       O  0.61974051  0.45704272  0.00053293    -0.41400
O2461       O  0.51160482  0.34648239  0.97833953    -0.78100
O2462       O  0.60716097  0.38623267  0.97842296    -0.96700
O2463       O  0.61926103  0.65636376  0.97728907    -0.90000
O2464       O  0.51253238  0.61431139  0.97655204    -0.92900
C2465       C  0.55103738  0.40706637  0.05394135     1.00900
C2466       C  0.94164121  0.59680823  0.05148664     1.13800
C2467       C  0.68528593  0.36430018  0.05206521     1.04600
O2468       O  0.72127399  0.43597548  0.00616343    -0.95000
O2469       O  0.70008907  0.40533282  0.96557093    -0.90800
O2470       O  0.63996858  0.38259169  0.94060015    -0.83900
C2471       C  0.68360017  0.40435117  0.94665010     1.11200
O2472       O  0.55004251  0.56402973  0.02891714    -0.97000
Zr2473     Zr  0.56810032  0.60377826  0.99785083     1.88900
O2474       O  0.57194432  0.61999200  0.93962332    -0.73700
O2475       O  0.72567243  0.35868143  0.99188521    -0.52900
O2476       O  0.63923858  0.59653026  0.00614474    -0.97600
O2477       O  0.50662098  0.54365311  0.98881627    -0.54800
O2478       O  0.59570325  0.59298872  0.96469313    -0.74200
C2479       C  0.58856957  0.59916255  0.94537298     0.98200
O2480       O  0.55699162  0.34219008  0.91819409    -0.63000
O2481       O  0.89061730  0.63635337  0.00507859    -0.57800
O2482       O  0.49147036  0.66641403  0.94131010    -0.94500
O2483       O  0.92902934  0.63714970  0.96485401    -0.92900
O2484       O  0.97440396  0.39518654  0.00082586    -0.93300
O2485       O  0.54866383  0.43035561  0.97025878    -0.92100
C2486       C  0.94653451  0.65301696  0.94667597     1.17000
H2487       H  0.98064857  0.34585758  0.03048170     0.32900
H2488       H  0.62357894  0.40833729  0.97043461     0.43800
H2489       H  0.49329859  0.59521706  0.96713474     0.37300
H2490       H  0.63318768  0.64632110  0.02835121     0.33800
H2491       H  0.60354623  0.47086139  0.00437787     0.25600
H2492       H  0.75681362  0.37934752  0.99629570     0.31500
H2493       H  0.63277781  0.57456465  0.99910806     0.37400
H2494       H  0.45741793  0.38202617  0.98855032     0.31900
H2495       H  0.86157470  0.61275370  0.00312710     0.30800
H2496       H  0.89086183  0.56783116  0.97617324     0.32500
H2497       H  0.52392971  0.52973362  0.99014014     0.31400
H2498       H  0.54206081  0.41502047  0.95789979     0.35400
H2499       H  0.56744981  0.36750237  0.91551443     0.28200
H2500       H  0.57177791  0.66812432  0.08701631     0.32400
H2501       H  0.55882540  0.54594921  0.02486865     0.35200
H2502       H  0.89087573  0.64037348  0.02054158     0.27900
H2503       H  0.58300265  0.33888660  0.91139990     0.40700
H2504       H  0.71057849  0.44988464  0.99704048     0.30800
H2505       H  0.63975028  0.45834903  0.01313546     0.38400
H2506       H  0.99684503  0.54512437  0.97459679     0.30200
H2507       H  0.71781243  0.67089115  0.00130542     0.30300
H2508       H  0.56975133  0.63287425  0.08022715     0.30600
C2509       C  0.91138783  0.61063017  0.73196732     0.02700
C2510       C  0.95868619  0.63956292  0.73230836    -0.13500
C2511       C  0.99380270  0.63990265  0.74620260     0.00200
C2512       C  0.98269188  0.61062070  0.75952745    -0.12000
C2513       C  0.93544642  0.58101681  0.75975915     0.02700
C2514       C  0.89928117  0.58101317  0.74594400    -0.11400
H2515       H  0.96693694  0.32979543  0.72265369     0.08300
H2516       H  0.01030117  0.61151233  0.77048010     0.05800
H2517       H  0.86236148  0.55855105  0.74619137     0.05600
C2518       C  0.72754888  0.34620677  0.73692589     0.02700
C2519       C  0.76442209  0.36890514  0.75067940    -0.13500
C2520       C  0.75508805  0.39008509  0.76438508     0.00200
C2521       C  0.70962538  0.38896003  0.76395204    -0.12000
C2522       C  0.67326693  0.36692656  0.75000519     0.02700
C2523       C  0.68180244  0.34507885  0.73678613    -0.11400
H2524       H  0.80018931  0.37041390  0.75050585     0.08300
H2525       H  0.70271841  0.40563643  0.77433038     0.05800
H2526       H  0.65409021  0.66266815  0.72547188     0.05600
C2527       C  0.60924153  0.49172720  0.73060940     0.02700
C2528       C  0.58333144  0.49834436  0.74628689    -0.13500
C2529       C  0.55967567  0.47343733  0.76283606     0.00200
C2530       C  0.56087737  0.44166867  0.76340101    -0.12000
C2531       C  0.58713984  0.43522542  0.74779492     0.02700
C2532       C  0.61189835  0.46048742  0.73154714    -0.11400
H2533       H  0.58229268  0.52293404  0.74581513     0.08300
H2534       H  0.04091954  0.42206929  0.77615383     0.05800
H2535       H  0.63274437  0.45573191  0.71955113     0.05600
C2536       C  0.62751922  0.36829496  0.74868520     0.79800
N2537       N  0.62890093  0.40003892  0.74858762    -0.78500
C2538       C  0.58644424  0.40140905  0.74791695     0.82200
N2539       N  0.54282423  0.37116424  0.74730216    -0.78500
C2540       C  0.54136822  0.33949801  0.74730874     0.82300
N2541       N  0.58372340  0.33799031  0.74800677    -0.80200
Zr2542     Zr  0.91525159  0.47035526  0.78872996     2.17500
O2543       O  0.92015744  0.46296505  0.75051006    -0.51800
O2544       O  0.91923339  0.52292674  0.77063343    -0.75000
O2545       O  0.83709299  0.42908211  0.77325376    -0.81800
O2546       O  0.54805810  0.48759038  0.79741885    -0.83500
O2547       O  0.77714574  0.41418233  0.79832921    -0.79100
O2548       O  0.98744744  0.47274012  0.77297365    -0.90800
O2549       O  0.92874653  0.56235498  0.79565966    -0.76700
O2550       O  0.86778533  0.48742409  0.80974985    -0.86200
O2551       O  0.97407205  0.51868071  0.80866754    -0.85900
O2552       O  0.86432387  0.41837143  0.81079133    -0.72700
O2553       O  0.95922553  0.44816509  0.80997985    -0.84800
Zr2554     Zr  0.91610545  0.46122700  0.87396714     2.26400
Zr2555     Zr  0.81735938  0.43643578  0.83208574     2.06300
Zr2556     Zr  0.51613928  0.49579936  0.83068577     2.10000
Zr2557     Zr  0.92643748  0.53513641  0.83012709     1.78800
O2558       O  0.57898278  0.47879248  0.83701758    -0.93600
O2559       O  0.85924398  0.54853866  0.83181686    -0.41400
O2560       O  0.96860825  0.51282740  0.85223646    -0.78100
O2561       O  0.87436940  0.48540502  0.85257820    -0.96700
O2562       O  0.85938055  0.41317524  0.85354136    -0.90000
O2563       O  0.96548725  0.44535674  0.85314641    -0.92900
C2564       C  0.92542978  0.55307130  0.77627444     1.00900
C2565       C  0.53035608  0.47892600  0.77866187     1.13800
C2566       C  0.79204076  0.41296516  0.77948400     1.04600
O2567       O  0.76010777  0.45872940  0.82617215    -0.95000
O2568       O  0.78064729  0.43784415  0.86577644    -0.90800
O2569       O  0.84107937  0.45383578  0.89049401    -0.83900
C2570       C  0.79757158  0.44616753  0.88466618     1.11200
O2571       O  0.91092259  0.36593362  0.80120818    -0.97000
Zr2572     Zr  0.90878522  0.39770757  0.83228617     1.88900
O2573       O  0.90788331  0.40676045  0.89161941    -0.73700
O2574       O  0.75252974  0.37619728  0.84025206    -0.52900
O2575       O  0.83328040  0.34098361  0.82992282    -0.97600
O2576       O  0.97726362  0.38547728  0.83381943    -0.54800
O2577       O  0.89625944  0.36718619  0.86630886    -0.74200
C2578       C  0.89880698  0.37593749  0.88574915     0.98200
O2579       O  0.92604077  0.47552510  0.91168434    -0.63000
O2580       O  0.57759248  0.55688202  0.82205610    -0.57800
O2581       O  0.49288118  0.50578077  0.88846541    -0.94500
O2582       O  0.55439910  0.51741396  0.86481402    -0.92900
O2583       O  0.00358770  0.59111217  0.82993571    -0.93300
O2584       O  0.93320076  0.57252115  0.85961605    -0.92100
C2585       C  0.53840020  0.52020726  0.88307298     1.17000
H2586       H  0.99676590  0.53783215  0.79934731     0.32900
H2587       H  0.85826433  0.49500174  0.86104835     0.43800
H2588       H  0.98527541  0.43889340  0.86209111     0.37300
H2589       H  0.84360465  0.39754843  0.80291171     0.33800
H2590       H  0.87330903  0.57297728  0.82587555     0.25600
H2591       H  0.72149387  0.37641455  0.83715582     0.31500
H2592       H  0.84176013  0.65704206  0.83527679     0.37400
H2593       H  0.01607730  0.59516390  0.81506214     0.31900
H2594       H  0.57344600  0.57075835  0.83330984     0.30800
H2595       H  0.61051144  0.50009962  0.83305315     0.32500
H2596       H  0.98590732  0.38639228  0.84907511     0.31400
H2597       H  0.93943865  0.56116318  0.87225240     0.35400
H2598       H  0.91422984  0.49271131  0.91350835     0.28200
H2599       H  0.89590282  0.46847301  0.74368173     0.32400
H2600       H  0.91333889  0.67849053  0.80765800     0.35200
H2601       H  0.60961541  0.55822802  0.82519517     0.27900
H2602       H  0.90169395  0.45376501  0.91946593     0.40700
H2603       H  0.76795770  0.46970681  0.81165028     0.30800
H2604       H  0.83563611  0.53368286  0.82091550     0.38400
H2605       H  0.00533995  0.40669628  0.82713255     0.30200
H2606       H  0.75530821  0.36186630  0.82891170     0.30300
H2607       H  0.90685661  0.43732083  0.74857566     0.30600
C2608       C  0.74836557  0.46012139  0.56398766     0.02700
C2609       C  0.79428377  0.46105836  0.56368655    -0.13500
C2610       C  0.83313489  0.48438680  0.57663561     0.00200
C2611       C  0.82574948  0.50682148  0.58976905    -0.12000
C2612       C  0.78000390  0.50558909  0.59053220     0.02700
C2613       C  0.74132868  0.48230568  0.57766086    -0.11400
H2614       H  0.79980834  0.44377050  0.55329779     0.08300
H2615       H  0.85488394  0.52404965  0.60031076     0.05800
H2616       H  0.70596637  0.48138504  0.57834734     0.05600
C2617       C  0.59910168  0.57157016  0.59659814     0.02700
C2618       C  0.61564632  0.59762467  0.58025255    -0.13500
C2619       C  0.58291740  0.59745218  0.56501743     0.00200
C2620       C  0.53277870  0.57139645  0.56614032    -0.12000
C2621       C  0.51582788  0.54500470  0.58230678     0.02700
C2622       C  0.54929202  0.54540518  0.59752604    -0.11400
H2623       H  0.65374762  0.61852966  0.57957413     0.08300
H2624       H  0.50742587  0.57123695  0.55419427     0.05800
H2625       H  0.53669971  0.52460222  0.60976386     0.05600
C2626       C  0.96279339  0.38749279  0.56607211     0.02700
C2627       C  0.45350451  0.41692077  0.56599697    -0.13500
C2628       C  0.92218648  0.41740214  0.58098227     0.00200
C2629       C  0.89888424  0.39019838  0.59636688    -0.12000
C2630       C  0.90773817  0.36139011  0.59690689     0.02700
C2631       C  0.93990086  0.36006426  0.58173264    -0.11400
H2632       H  0.47170472  0.43846802  0.55432267     0.08300
H2633       H  0.87462350  0.39170946  0.60811054     0.05800
H2634       H  0.94435960  0.67090392  0.58133063     0.05600
C2635       C  0.87991547  0.48349453  0.57795538     0.79800
N2636       N  0.92424674  0.51409241  0.57890310    -0.78500
C2637       C  0.96663418  0.51246492  0.58124079     0.82200
N2638       N  0.96427336  0.48066428  0.58264030    -0.78500
C2639       C  0.92083463  0.45041731  0.58179747     0.82300
N2640       N  0.87848966  0.45167255  0.57932241    -0.80200
Zr2641     Zr  0.75595184  0.59119379  0.70636060     2.17500
O2642       O  0.74720830  0.57691157  0.74462342    -0.51800
O2643       O  0.75005283  0.63785393  0.72534782    -0.75000
O2644       O  0.83061291  0.59736198  0.72264404    -0.81800
O2645       O  0.61981450  0.52109236  0.69727340    -0.83500
O2646       O  0.89235934  0.62832366  0.69851519    -0.79100
O2647       O  0.68424215  0.53890014  0.72001829    -0.90800
O2648       O  0.73492689  0.33755049  0.70120792    -0.76700
O2649       O  0.80575365  0.64491036  0.68668467    -0.86200
O2650       O  0.69862535  0.60228939  0.68702005    -0.85900
O2651       O  0.80673243  0.57806551  0.68352455    -0.72700
O2652       O  0.71049273  0.54173648  0.68396441    -0.84800
Zr2653     Zr  0.75707698  0.59613545  0.62146745     2.26400
Zr2654     Zr  0.85672265  0.63228263  0.66390421     2.06300
Zr2655     Zr  0.65493159  0.55373397  0.66398420     2.10000
Zr2656     Zr  0.74812176  0.65533340  0.66682232     1.78800
O2657       O  0.59878516  0.49246571  0.65556274    -0.93600
O2658       O  0.81413392  0.38226128  0.67091138    -0.41400
O2659       O  0.70400809  0.60722012  0.64378219    -0.78100
O2660       O  0.80114693  0.64576357  0.64427589    -0.96700
O2661       O  0.81240442  0.58336445  0.64095119    -0.90000
O2662       O  0.70596805  0.54220933  0.64074340    -0.92900
C2663       C  0.73819738  0.66158239  0.72030693     1.00900
C2664       C  0.63919773  0.51919795  0.71499719     1.13800
C2665       C  0.87596638  0.61252248  0.71689543     1.04600
O2666       O  0.91448483  0.35921183  0.67403253    -0.95000
O2667       O  0.89475743  0.33160878  0.63077819    -0.90800
O2668       O  0.83254205  0.64390039  0.60561429    -0.83900
C2669       C  0.87817664  0.33170806  0.61189868     1.11200
O2670       O  0.75882336  0.49183788  0.69053864    -0.97000
Zr2671     Zr  0.76114490  0.53019037  0.66089767     1.88900
O2672       O  0.76301389  0.54997437  0.60231235    -0.73700
O2673       O  0.91964014  0.61714714  0.65446698    -0.52900
O2674       O  0.83599946  0.52561156  0.66244581    -0.97600
O2675       O  0.69285757  0.47013121  0.65777268    -0.54800
O2676       O  0.77426488  0.51459733  0.62632439    -0.74200
C2677       C  0.77142597  0.52458940  0.60733610     0.98200
O2678       O  0.74885294  0.60901279  0.58394432    -0.63000
O2679       O  0.58785972  0.56523083  0.67253551    -0.57800
O2680       O  0.67987601  0.58781273  0.60710715    -0.94500
O2681       O  0.61715870  0.55629046  0.63064538    -0.92900
O2682       O  0.67405196  0.66050205  0.66293878    -0.93300
O2683       O  0.74818034  0.35922588  0.63723573    -0.92100
C2684       C  0.63411787  0.57167548  0.61244209     1.17000
H2685       H  0.67573958  0.60419344  0.69648947     0.32900
H2686       H  0.81878172  0.33489759  0.63673962     0.43800
H2687       H  0.68627893  0.52343286  0.63120807     0.37300
H2688       H  0.82588771  0.56915437  0.69076533     0.33800
H2689       H  0.79702686  0.39588536  0.67365947     0.25600
H2690       H  0.95108547  0.63796606  0.65843622     0.31500
H2691       H  0.82751608  0.50308903  0.65560620     0.37400
H2692       H  0.65194144  0.30703372  0.65438777     0.31900
H2693       H  0.55745784  0.54250498  0.67028970     0.30800
H2694       H  0.56636894  0.49115792  0.65372415     0.32500
H2695       H  0.68419298  0.46763985  0.64248396     0.31400
H2696       H  0.74831818  0.34677484  0.62428046     0.35400
H2697       H  0.76036367  0.63468395  0.58270211     0.28200
H2698       H  0.77268401  0.59828480  0.75162496     0.32400
H2699       H  0.75835122  0.47120377  0.68399377     0.35200
H2700       H  0.58908040  0.56806313  0.68816473     0.27900
H2701       H  0.77511113  0.27361784  0.57600960     0.40700
H2702       H  0.90088120  0.37360157  0.66755404     0.30800
H2703       H  0.82959751  0.38195002  0.68467762     0.38400
H2704       H  0.66478228  0.47028877  0.66497724     0.30200
H2705       H  0.91523854  0.59836734  0.66498104     0.30300
H2706       H  0.75771330  0.55896297  0.74697310     0.30600
C2707       C  0.92185837  0.60487459  0.42917437     0.02700
C2708       C  0.93015423  0.58392059  0.41497161    -0.13500
C2709       C  0.89183618  0.56089148  0.40183832     0.00200
C2710       C  0.84564245  0.55877323  0.40282371    -0.12000
C2711       C  0.83731755  0.57993234  0.41658829     0.02700
C2712       C  0.87545188  0.60287117  0.42982007    -0.11400
H2713       H  0.96584522  0.58537930  0.41420513     0.08300
H2714       H  0.81673395  0.54161498  0.39216538     0.05800
H2715       H  0.86904119  0.61919512  0.44068474     0.05600
C2716       C  0.57068285  0.49720993  0.39823290     0.02700
C2717       C  0.55474770  0.47310062  0.41572396    -0.13500
C2718       C  0.58900186  0.47204480  0.42967642     0.00200
C2719       C  0.63942299  0.49528327  0.42652364    -0.12000
C2720       C  0.65553579  0.52053314  0.40987062     0.02700
C2721       C  0.62111321  0.52104927  0.39551919    -0.11400
H2722       H  0.01648298  0.45224323  0.41739952     0.08300
H2723       H  0.66581275  0.49474828  0.43765086     0.05800
H2724       H  0.63352912  0.54093131  0.38272781     0.05600
C2725       C  0.69586046  0.33737311  0.42771961     0.02700
C2726       C  0.72220236  0.36618814  0.41315910    -0.13500
C2727       C  0.76236157  0.36861142  0.40144516     0.00200
C2728       C  0.77416054  0.67429067  0.40323645    -0.12000
C2729       C  0.74669059  0.64527771  0.41685202     0.02700
C2730       C  0.70956370  0.64414704  0.42970035    -0.11400
H2731       H  0.71293300  0.38711802  0.41156913     0.08300
H2732       H  0.80249738  0.67462281  0.39309681     0.05800
H2733       H  0.68874746  0.62143817  0.44033621     0.05600
C2734       C  0.79046976  0.58034130  0.41570169     0.79800
N2735       N  0.79125536  0.61181815  0.41672781    -0.78500
C2736       C  0.74876786  0.61289118  0.41491148     0.82200
N2737       N  0.70605162  0.58301862  0.41188725    -0.78500
C2738       C  0.70449542  0.55166151  0.41081420     0.82300
N2739       N  0.74678528  0.54995216  0.41293086    -0.80200
Zr2740     Zr  0.57652063  0.36499496  0.45455687     2.17500
O2741       O  0.58019631  0.37639949  0.41602630    -0.51800
O2742       O  0.50238479  0.31676308  0.43858991    -0.75000
O2743       O  0.63544885  0.35256765  0.43705323    -0.81800
O2744       O  0.55787904  0.44562491  0.46377176    -0.83500
O2745       O  0.65589639  0.65469023  0.46180269    -0.79100
O2746       O  0.58230629  0.41860726  0.43991612    -0.90800
O2747       O  0.94487429  0.62060903  0.46422050    -0.76700
O2748       O  0.55067556  0.31260426  0.47571542    -0.86200
O2749       O  0.51042472  0.36111370  0.47572059    -0.85900
O2750       O  0.64833730  0.37654101  0.47523338    -0.72700
O2751       O  0.60873110  0.41675136  0.47575546    -0.84800
Zr2752     Zr  0.59015401  0.36958641  0.53923894     2.26400
Zr2753     Zr  0.62199992  0.65639360  0.49683090     2.06300
Zr2754     Zr  0.54353115  0.41229272  0.49755159     2.10000
Zr2755     Zr  0.98529083  0.64196181  0.49737422     1.78800
O2756       O  0.57597629  0.47366058  0.50721513    -0.93600
O2757       O  0.95869432  0.57896993  0.49825213    -0.41400
O2758       O  0.51970615  0.36028905  0.51876873    -0.78100
O2759       O  0.55477629  0.65064796  0.51841878    -0.96700
O2760       O  0.65606852  0.37515439  0.51756138    -0.90000
O2761       O  0.61386883  0.42252874  0.51850850    -0.92900
C2762       C  0.95913497  0.62649956  0.44481131     1.00900
C2763       C  0.57399928  0.44329829  0.44538225     1.13800
C2764       C  0.65833965  0.33596142  0.44258819     1.04600
O2765       O  0.59612825  0.59530334  0.48874405    -0.95000
O2766       O  0.61091830  0.62337283  0.53059137    -0.90800
O2767       O  0.59327554  0.65263787  0.55564047    -0.83900
C2768       C  0.59888673  0.62690051  0.54961455     1.11200
O2769       O  0.72029405  0.46159135  0.46391103    -0.97000
Zr2770     Zr  0.67893762  0.42751230  0.49626833     1.88900
O2771       O  0.66582125  0.41709900  0.55503886    -0.73700
O2772       O  0.70507196  0.33477220  0.50355804    -0.52900
O2773       O  0.75733819  0.42929788  0.49022439    -0.97600
O2774       O  0.70162094  0.48959403  0.49893571    -0.54800
O2775       O  0.72361679  0.44385250  0.52899981    -0.74200
C2776       C  0.71002206  0.43872637  0.54850693     0.98200
O2777       O  0.58442164  0.70189931  0.57845522    -0.63000
O2778       O  0.96613004  0.40870429  0.48781179    -0.57800
O2779       O  0.52424667  0.37512718  0.55562002    -0.94500
O2780       O  0.50203683  0.40538735  0.53205976    -0.92900
O2781       O  0.91119624  0.64705876  0.50091576    -0.93300
O2782       O  0.93322041  0.61037123  0.52812291    -0.92100
C2783       C  0.49893762  0.39002784  0.55039447     1.17000
H2784       H  0.48387648  0.35961663  0.46697804     0.32900
H2785       H  0.53835461  0.62886047  0.52667514     0.43800
H2786       H  0.62414992  0.44264456  0.52743457     0.37300
H2787       H  0.67779796  0.38299505  0.46709171     0.33800
H2788       H  0.92337377  0.56725261  0.49446577     0.25600
H2789       H  0.70757516  0.64859274  0.49867094     0.31500
H2790       H  0.78249575  0.45169027  0.49639861     0.37400
H2791       H  0.90159527  0.64943631  0.48615885     0.31900
H2792       H  0.94051942  0.38671488  0.49493474     0.30800
H2793       H  0.54674222  0.47529130  0.51166370     0.32500
H2794       H  0.70218216  0.49379524  0.51438164     0.31400
H2795       H  0.94642466  0.62739361  0.53978375     0.35400
H2796       H  0.05469213  0.67673200  0.58231625     0.28200
H2797       H  0.56975405  0.35338713  0.40941505     0.32400
H2798       H  0.75224632  0.48125616  0.46851650     0.32800
H2799       H  0.96541197  0.42794437  0.49560069     0.27900
H2800       H  0.61418523  0.70167822  0.58386103     0.40700
H2801       H  0.56047928  0.58226682  0.49222494     0.30800
H2802       H  0.97510160  0.57558939  0.48577163     0.38400
H2803       H  0.67266615  0.49093907  0.49353558     0.30200
H2804       H  0.72668624  0.35812914  0.49660649     0.30300
H2805       H  0.61556347  0.39096136  0.41220059     0.30600
C2806       C  0.89557191  0.65868032  0.23408024     0.02700
C2807       C  0.94207159  0.66068697  0.23329991    -0.13500
C2808       C  0.98057029  0.68364421  0.24647428     0.00200
C2809       C  0.97212649  0.37146260  0.26058100    -0.12000
C2810       C  0.92604193  0.36970215  0.26171021     0.02700
C2811       C  0.88775143  0.67976672  0.24843253    -0.11400
H2812       H  0.94835155  0.64442976  0.22233382     0.08300
H2813       H  0.50112120  0.38883892  0.27117202     0.05800
H2814       H  0.85215815  0.67844466  0.24927395     0.05600
C2815       C  0.74642794  0.43621495  0.26491796     0.02700
C2816       C  0.76346401  0.46137931  0.24799836    -0.13500
C2817       C  0.73096556  0.46126554  0.23265377     0.00200
C2818       C  0.68056465  0.43592552  0.23417208    -0.12000
C2819       C  0.66326742  0.41004350  0.25065764     0.02700
C2820       C  0.69643970  0.41051848  0.26606928    -0.11400
H2821       H  0.80175292  0.48192998  0.24710369     0.08300
H2822       H  0.65521470  0.43584530  0.22225122     0.05800
H2823       H  0.68350204  0.39016399  0.27859475     0.05600
C2824       C  0.61145828  0.58730200  0.23257005     0.02700
C2825       C  0.60208293  0.61551461  0.23218952    -0.13500
C2826       C  0.56839576  0.61627405  0.24631033     0.00200
C2827       C  0.54179597  0.58759680  0.26045320    -0.12000
C2828       C  0.55070222  0.55878677  0.26102458     0.02700
C2829       C  0.58595390  0.55876932  0.24720283    -0.11400
H2830       H  0.62264452  0.63792212  0.22131314     0.08300
H2831       H  0.51590070  0.58835646  0.27161335     0.05800
H2832       H  0.59276744  0.53658656  0.24759204     0.05600
C2833       C  0.52721092  0.34967689  0.24743442     0.79800
N2834       N  0.52564286  0.65124516  0.24659467    -0.78500
C2835       C  0.56787135  0.64960421  0.24774712     0.82200
N2836       N  0.61193010  0.34683614  0.24956947    -0.78500
C2837       C  0.61401179  0.37856601  0.24974871     0.82300
N2838       N  0.57146772  0.38021615  0.24865349    -0.80200
Zr2839     Zr  0.72865155  0.56487038  0.12279268     2.17500
O2840       O  0.73162994  0.57443632  0.08411111    -0.51800
O2841       O  0.65384255  0.51745226  0.10641411    -0.75000
O2842       O  0.78893429  0.55404689  0.10520126    -0.81800
O2843       O  0.71055365  0.64566943  0.13230279    -0.83500
O2844       O  0.80816992  0.52267462  0.12922218    -0.79100
O2845       O  0.73518394  0.61897968  0.10832213    -0.90800
O2846       O  0.59589124  0.48749170  0.13198846    -0.76700
O2847       O  0.70188909  0.51183431  0.14354750    -0.86200
O2848       O  0.66188086  0.56036084  0.14361008    -0.85900
O2849       O  0.79959958  0.57589144  0.14411200    -0.72700
O2850       O  0.76062473  0.61640450  0.14420346    -0.84800
Zr2851     Zr  0.73924966  0.56733206  0.20774148     2.26400
Zr2852     Zr  0.77222507  0.52191738  0.16453216     2.06300
Zr2853     Zr  0.69458124  0.61112722  0.16561542     2.10000
Zr2854     Zr  0.63634619  0.50823558  0.16511529     1.78800
O2855       O  0.72363751  0.67177448  0.17600150    -0.93600
O2856       O  0.61302671  0.44583233  0.16603863    -0.41400
O2857       O  0.67005081  0.55873668  0.18662361    -0.78100
O2858       O  0.70434631  0.51570828  0.18590412    -0.96700
O2859       O  0.80590588  0.57330425  0.18632903    -0.90000
O2860       O  0.76338247  0.62057023  0.18739369    -0.92900
C2861       C  0.61032485  0.49385048  0.11262084     1.00900
C2862       C  0.72671676  0.64357989  0.11388434     1.13800
C2863       C  0.81230482  0.53777548  0.11064388     1.04600
O2864       O  0.74447973  0.46087664  0.15556699    -0.95000
O2865       O  0.75955211  0.48776807  0.19817913    -0.90800
O2866       O  0.74164532  0.51654835  0.22343603    -0.83900
C2867       C  0.74719293  0.49088274  0.21725648     1.11200
O2868       O  0.87214412  0.66305247  0.13429607    -0.97000
Zr2869     Zr  0.82928522  0.62634561  0.16561855     1.88900
O2870       O  0.81367883  0.61485803  0.22447498    -0.73700
O2871       O  0.85229438  0.52869383  0.17383045    -0.52900
O2872       O  0.90846689  0.62915026  0.16007920    -0.97600
O2873       O  0.85246376  0.35475960  0.16786604    -0.54800
O2874       O  0.87205317  0.64330105  0.19882638    -0.74200
C2875       C  0.85779811  0.63742913  0.21827477     0.98200
O2876       O  0.72749714  0.56255481  0.24645910    -0.63000
O2877       O  0.61453744  0.60427811  0.15602162    -0.57800
O2878       O  0.67141149  0.57215879  0.22278506    -0.94500
O2879       O  0.65371913  0.60545896  0.19962264    -0.92900
O2880       O  0.56116325  0.51219072  0.16728493    -0.93300
O2881       O  0.58381097  0.47601659  0.19566833    -0.92100
C2882       C  0.64806502  0.58855203  0.21750494     1.17000
H2883       H  0.63566352  0.55909574  0.13473955     0.32900
H2884       H  0.68763118  0.49370480  0.19394433     0.43800
H2885       H  0.77295982  0.64039076  0.19651254     0.37300
H2886       H  0.82950767  0.58285335  0.13619838     0.33800
H2887       H  0.57711332  0.43317326  0.16343648     0.25600
H2888       H  0.84977677  0.50576319  0.17039745     0.31500
H2889       H  0.90944149  0.61269920  0.17106283     0.37400
H2890       H  0.53538187  0.49036623  0.16080033     0.31900
H2891       H  0.59108077  0.58669873  0.16653484     0.30800
H2892       H  0.69552701  0.33995788  0.17953329     0.32500
H2893       H  0.85009426  0.35854094  0.18319867     0.31400
H2894       H  0.60341672  0.48827114  0.20825558     0.35400
H2895       H  0.70009844  0.53834234  0.24964441     0.28200
H2896       H  0.72460016  0.55176442  0.07787304     0.32400
H2897       H  0.90672233  0.34720018  0.13916125     0.35200
H2898       H  0.61635096  0.62684461  0.15980356     0.27900
H2899       H  0.75695638  0.56266773  0.25250729     0.40700
H2900       H  0.70917707  0.44796456  0.15965557     0.30800
H2901       H  0.62761897  0.44264433  0.15287983     0.38400
H2902       H  0.82461144  0.35625873  0.16125169     0.30200
H2903       H  0.87526248  0.54557579  0.16291341     0.30300
H2904       H  0.76653649  0.59099365  0.08030818     0.30600
Zr2905     Zr  0.90472552  0.46291004  0.28951782     2.17500
O2906       O  0.89323171  0.47091617  0.25163208    -0.51800
O2907       O  0.90950214  0.41483663  0.27226221    -0.75000
O2908       O  0.47725153  0.50854920  0.27149412    -0.81800
O2909       O  0.76522129  0.42405472  0.29987007    -0.83500
O2910       O  0.54137200  0.53004826  0.29460546    -0.79100
O2911       O  0.82686567  0.45271458  0.27545355    -0.90800
O2912       O  0.92219057  0.38173394  0.29744400    -0.76700
O2913       O  0.96050905  0.45113369  0.30931451    -0.86200
O2914       O  0.85369139  0.41164644  0.31105303    -0.85900
O2915       O  0.95107159  0.51531285  0.30978981    -0.72700
O2916       O  0.85439307  0.47779477  0.31119541    -0.84800
Zr2917     Zr  0.91003727  0.46704488  0.37386487     2.26400
Zr2918     Zr  0.00730823  0.50309094  0.32970019     2.06300
Zr2919     Zr  0.80546097  0.42695108  0.33366739     2.10000
Zr2920     Zr  0.90928505  0.40040416  0.33134943     1.78800
O2921       O  0.74408703  0.44446697  0.34140993    -0.93600
O2922       O  0.97901441  0.39061041  0.33740793    -0.41400
O2923       O  0.86102186  0.41499452  0.35397349    -0.78100
O2924       O  0.95874896  0.45118409  0.35170722    -0.96700
O2925       O  0.95879064  0.51838370  0.35212457    -0.90000
O2926       O  0.85260318  0.47805605  0.35448049    -0.92900
C2927       C  0.91813977  0.38987290  0.27810689     1.00900
C2928       C  0.78143761  0.43731978  0.28113097     1.13800
C2929       C  0.52226831  0.52955150  0.27630315     1.04600
O2930       O  0.56952847  0.48585790  0.32144747    -0.95000
O2931       O  0.54923892  0.50667691  0.36319250    -0.90800
O2932       O  0.98919973  0.48078937  0.38885281    -0.83900
C2933       C  0.53456276  0.49578964  0.38247485     1.11200
O2934       O  0.90304743  0.56566783  0.30178598    -0.97000
Zr2935     Zr  0.90147285  0.52860874  0.33211787     1.88900
O2936       O  0.90572062  0.51490009  0.39127526    -0.73700
O2937       O  0.56644893  0.56415159  0.33500157    -0.52900
O2938       O  0.97355546  0.58742501  0.33295320    -0.97600
O2939       O  0.82854042  0.53576017  0.33051774    -0.54800
O2940       O  0.89653637  0.54995325  0.36624719    -0.74200
C2941       C  0.89967344  0.54102199  0.38548897     0.98200
O2942       O  0.91809858  0.45841568  0.41200701    -0.63000
O2943       O  0.74328514  0.36578586  0.32798960    -0.57800
O2944       O  0.83755796  0.41690355  0.39012046    -0.94500
O2945       O  0.77133578  0.39921205  0.36849496    -0.92900
O2946       O  0.83875442  0.34154384  0.32756273    -0.93300
O2947       O  0.89761084  0.36088935  0.36176800    -0.92100
C2948       C  0.79160029  0.39762335  0.38605521     1.17000
H2949       H  0.83277469  0.39189016  0.30232946     0.32900
H2950       H  0.97913239  0.44413083  0.35971060     0.43800
H2951       H  0.83106556  0.48161193  0.36388765     0.37300
H2952       H  0.96761614  0.53685101  0.30128839     0.33800
H2953       H  0.96830575  0.36675494  0.33197753     0.25600
H2954       H  0.59696029  0.56813816  0.32772898     0.31500
H2955       H  0.96220168  0.60221858  0.34009006     0.37400
H2956       H  0.85337321  0.66029331  0.32211405     0.31900
H2957       H  0.75295293  0.35158809  0.33740038     0.30800
H2958       H  0.71204244  0.42302501  0.33901785     0.32500
H2959       H  0.81069415  0.52538210  0.34414992     0.31400
H2960       H  0.90523829  0.37594475  0.37432879     0.35400
H2961       H  0.89012975  0.45897511  0.41905307     0.28200
H2962       H  0.91702292  0.46624089  0.24394462     0.32400
H2963       H  0.90093266  0.58563899  0.30792435     0.35200
H2964       H  0.71280476  0.36313496  0.33458860     0.27900
H2965       H  0.91141172  0.43374950  0.41403373     0.40700
H2966       H  0.56358739  0.47839788  0.30645704     0.30800
H2967       H  0.50533483  0.40901737  0.32653015     0.38400
H2968       H  0.80743902  0.51912805  0.31961202     0.30200
H2969       H  0.55446150  0.57750489  0.32610052     0.30300
H2970       H  0.90510908  0.49646997  0.24914107     0.30600
C2971       C  0.57379410  0.80575892  0.09687375     0.02700
C2972       C  0.52744223  0.80388903  0.09729206    -0.13500
C2973       C  0.98902717  0.78082534  0.08485135     0.00200
C2974       C  0.99689099  0.75901050  0.07141547    -0.12000
C2975       C  0.54339420  0.76055957  0.07019532     0.02700
C2976       C  0.58180336  0.78405500  0.08314792    -0.11400
H2977       H  0.52118667  0.82064096  0.10786214     0.08300
H2978       H  0.96772244  0.74158387  0.06095554     0.05800
H2979       H  0.61737745  0.78529997  0.08261253     0.05600
C2980       C  0.84961794  0.87229994  0.09553950     0.02700
C2981       C  0.86198822  0.84564512  0.09716305    -0.13500
C2982       C  0.89814436  0.84614174  0.08398920     0.00200
C2983       C  0.92379978  0.87398447  0.06942982    -0.12000
C2984       C  0.91179304  0.90096114  0.06712037     0.02700
C2985       C  0.87425246  0.90015520  0.08010702    -0.11400
H2986       H  0.84211207  0.82350123  0.10829876     0.08300
H2987       H  0.95144533  0.87374337  0.05909602     0.05800
H2988       H  0.86569890  0.92146323  0.07875516     0.05600
C2989       C  0.72110580  0.69861949  0.06781012     0.02700
C2990       C  0.70605630  0.00673753  0.08479649    -0.13500
C2991       C  0.74096347  0.00571797  0.09843063     0.00200
C2992       C  0.79131481  0.69580751  0.09486324    -0.12000
C2993       C  0.80670770  0.72148201  0.07849515     0.02700
C2994       C  0.77152383  0.72249535  0.06482461    -0.11400
H2995       H  0.66750750  0.98725920  0.08700710     0.08300
H2996       H  0.81817900  0.69505865  0.10560674     0.05800
H2997       H  0.78346493  0.74272499  0.05224840     0.05600
C2998       C  0.94205648  0.78124579  0.08394971     0.79800
N2999       N  0.94287535  0.81278020  0.08463584    -0.78500
C3000       C  0.90037378  0.81380997  0.08260993     0.82200
N3001       N  0.85766142  0.78392890  0.07978616    -0.78500
C3002       C  0.85593550  0.75251020  0.07912271     0.82300
N3003       N  0.89824112  0.75079322  0.08137853    -0.80200
C3004       C  0.91197946  0.98652423  0.93099491     0.02700
C3005       C  0.92243400  0.68297715  0.91724447    -0.13500
C3006       C  0.88752254  0.68098720  0.90207394     0.00200
C3007       C  0.84283266  0.98286675  0.90096610    -0.12000
C3008       C  0.83249625  0.95352394  0.91430961     0.02700
C3009       C  0.86682176  0.95571412  0.92926173    -0.11400
H3010       H  0.95786555  0.70680528  0.91808622     0.08300
H3011       H  0.81596344  0.98090829  0.88925904     0.05800
H3012       H  0.85834825  0.93294348  0.93959709     0.05600
C3013       C  0.71394289  0.76511624  0.93152282     0.02700
C3014       C  0.71360510  0.79741236  0.93109209    -0.13500
C3015       C  0.74112307  0.82377838  0.91560747     0.00200
C3016       C  0.76840082  0.81716046  0.90049935    -0.12000
C3017       C  0.76730090  0.78441364  0.90061910     0.02700
C3018       C  0.74034429  0.75852196  0.91616218    -0.11400
H3019       H  0.69212575  0.80200580  0.94283873     0.08300
H3020       H  0.79012029  0.83731185  0.88850872     0.05800
H3021       H  0.73986397  0.73339214  0.91629167     0.05600
C3022       C  0.69930028  0.89059643  0.91595869     0.79800
N3023       N  0.74274670  0.92116971  0.91459206    -0.78500
C3024       C  0.78557717  0.92042252  0.91348121     0.82200
N3025       N  0.78495530  0.88885841  0.91387935    -0.78500
C3026       C  0.74155089  0.85802762  0.91519020     0.82300
N3027       N  0.69867106  0.85901641  0.91617405    -0.80200
C3028       C  0.60034415  0.91429982  0.92872220     0.02700
C3029       C  0.56556746  0.89508851  0.91321958    -0.13500
C3030       C  0.57455916  0.87433232  0.89906153     0.00200
C3031       C  0.61817975  0.87279038  0.90038765    -0.12000
C3032       C  0.65315834  0.89184815  0.91564057     0.02700
C3033       C  0.64444511  0.91276606  0.92976818    -0.11400
H3034       H  0.53121190  0.89567440  0.91247257     0.08300
H3035       H  0.62499844  0.85670289  0.88947570     0.05800
H3036       H  0.67155724  0.92737711  0.94173554     0.05600
Zr3037     Zr  0.56051246  0.99979717  0.04154741     2.17500
O3038       O  0.55334055  0.98072354  0.07901874    -0.51800
O3039       O  0.55456961  0.71317889  0.05951265    -0.75000
O3040       O  0.63928745  0.68184156  0.05792062    -0.81800
O3041       O  0.92408221  0.93040261  0.03326746    -0.83500
O3042       O  0.70062146  0.70995919  0.03326563    -0.79100
O3043       O  0.98671359  0.95010777  0.05709858    -0.90800
O3044       O  0.55132378  0.75097758  0.03468062    -0.76700
O3045       O  0.60979940  0.71915279  0.02132721    -0.86200
O3046       O  0.50353416  0.67655413  0.02123524    -0.85900
O3047       O  0.61296838  0.98679243  0.01983003    -0.72700
O3048       O  0.51592666  0.94932900  0.01967584    -0.84800
Zr3049     Zr  0.56419490  0.66759134  0.95655686     2.26400
Zr3050     Zr  0.66160608  0.70658228  0.99919700     2.06300
Zr3051     Zr  0.96064505  0.96031606  0.99890980     2.10000
Zr3052     Zr  0.55332998  0.72886895  0.00048610     1.78800
O3053       O  0.90642925  0.89895845  0.98986522    -0.93600
O3054       O  0.62062574  0.78972971  0.99919901    -0.41400
O3055       O  0.51132037  0.67938091  0.97839976    -0.78100
O3056       O  0.60652451  0.71871202  0.97841351    -0.96700
O3057       O  0.61932032  0.99019927  0.97713109    -0.90000
O3058       O  0.51266659  0.94818054  0.97646156    -0.92900
C3059       C  0.55141744  0.74060501  0.05387994     1.00900
C3060       C  0.94186837  0.92987502  0.05175923     1.13800
C3061       C  0.68485826  0.69749800  0.05217225     1.04600
O3062       O  0.72349205  0.76710629  0.00647902    -0.95000
O3063       O  0.69929386  0.73869825  0.96592939    -0.90800
O3064       O  0.63976904  0.71503885  0.94076208    -0.83900
C3065       C  0.68308342  0.73732488  0.94692617     1.11200
O3066       O  0.55222172  0.89850150  0.02885755    -0.97000
Zr3067     Zr  0.56831501  0.93762816  0.99765321     1.88900
O3068       O  0.57240048  0.95396882  0.93937486    -0.73700
O3069       O  0.72234592  0.68900058  0.99026018    -0.52900
O3070       O  0.64052821  0.93176394  0.00591534    -0.97600
O3071       O  0.50769812  0.87711145  0.98898307    -0.54800
O3072       O  0.59572615  0.92670287  0.96443331    -0.74200
C3073       C  0.58887986  0.93302748  0.94509960     0.98200
O3074       O  0.55767353  0.67428801  0.91807482    -0.63000
O3075       O  0.88961445  0.96829145  0.00520187    -0.57800
O3076       O  0.49159921  0.00030472  0.94116940    -0.94500
O3077       O  0.92920199  0.97001617  0.96490723    -0.92900
O3078       O  0.97801624  0.73254243  0.99994572    -0.93300
O3079       O  0.54501362  0.76285752  0.97081524    -0.92100
C3080       C  0.94680257  0.98580548  0.94670561     1.17000
H3081       H  0.98121347  0.68009091  0.03036554     0.32900
H3082       H  0.62277737  0.74079654  0.97040516     0.43800
H3083       H  0.49350622  0.92919598  0.96697566     0.37300
H3084       H  0.63315598  0.97984066  0.02808673     0.33800
H3085       H  0.60505857  0.80412519  0.00265820     0.25600
H3086       H  0.75447602  0.70973918  0.99357636     0.31500
H3087       H  0.63388171  0.90925440  0.99956969     0.37400
H3088       H  0.45199901  0.70859789  0.99573944     0.31900
H3089       H  0.86069645  0.94475945  0.00291923     0.30800
H3090       H  0.88095158  0.89958214  0.98066535     0.32500
H3091       H  0.52693584  0.86460149  0.98798629     0.31400
H3092       H  0.54146226  0.74878797  0.95812490     0.35400
H3093       H  0.56740548  0.69945705  0.91532145     0.28200
H3094       H  0.57463775  0.00225990  0.08699671     0.32400
H3095       H  0.55977718  0.87995148  0.02448805     0.35200
H3096       H  0.88925861  0.97179837  0.02070947     0.27900
H3097       H  0.58448309  0.67154959  0.91160027     0.40700
H3098       H  0.70938548  0.78167384  0.00080683     0.30800
H3099       H  0.64075487  0.79151011  0.01184281     0.38400
H3100       H  0.99982550  0.87871147  0.97369714     0.30200
H3101       H  0.71823114  0.00499007  0.00165806     0.30300
H3102       H  0.56962301  0.96607857  0.08020002     0.30600
C3103       C  0.91068160  0.94408752  0.73229770     0.02700
C3104       C  0.95803341  0.97299282  0.73256929    -0.13500
C3105       C  0.99344842  0.97320753  0.74623849     0.00200
C3106       C  0.98241795  0.94389008  0.75952883    -0.12000
C3107       C  0.93507085  0.91435224  0.75989362     0.02700
C3108       C  0.89874407  0.91441316  0.74620157    -0.11400
H3109       H  0.96803641  0.66251523  0.72200240     0.08300
H3110       H  0.01019195  0.94469614  0.77034684     0.05800
H3111       H  0.86181373  0.89196139  0.74650281     0.05600
C3112       C  0.72753079  0.67983418  0.73705018     0.02700
C3113       C  0.76405055  0.70210799  0.75109199    -0.13500
C3114       C  0.75467427  0.72335465  0.76474506     0.00200
C3115       C  0.70934503  0.72243950  0.76417669    -0.12000
C3116       C  0.67321031  0.70064136  0.75008612     0.02700
C3117       C  0.68195679  0.67901377  0.73675260    -0.11400
H3118       H  0.79967636  0.70338863  0.75111056     0.08300
H3119       H  0.70234706  0.73904856  0.77457753     0.05800
H3120       H  0.65356266  0.99507521  0.72615504     0.05600
C3121       C  0.60793644  0.82454221  0.73037102     0.02700
C3122       C  0.58183421  0.83108680  0.74597395    -0.13500
C3123       C  0.55807853  0.80615650  0.76248267     0.00200
C3124       C  0.55905379  0.77431321  0.76300249    -0.12000
C3125       C  0.58563314  0.76799082  0.74748831     0.02700
C3126       C  0.61059553  0.79331395  0.73130235    -0.11400
H3127       H  0.58087928  0.85570852  0.74552356     0.08300
H3128       H  0.04008504  0.75526442  0.77622363     0.05800
H3129       H  0.63173138  0.78867024  0.71939495     0.05600
C3130       C  0.62725166  0.70174233  0.74884834     0.79800
N3131       N  0.62822698  0.73336105  0.74846874    -0.78500
C3132       C  0.58550689  0.73439010  0.74779611     0.82200
N3133       N  0.54210743  0.70397961  0.74743616    -0.78500
C3134       C  0.54106261  0.67246171  0.74770040     0.82300
N3135       N  0.58363106  0.67125567  0.74843768    -0.80200
Zr3136     Zr  0.91471181  0.80385673  0.78906254     2.17500
O3137       O  0.92003337  0.79474303  0.75115593    -0.51800
O3138       O  0.91774350  0.85597499  0.77078785    -0.75000
O3139       O  0.83656659  0.76255509  0.77361451    -0.81800
O3140       O  0.54660890  0.81994202  0.79720996    -0.83500
O3141       O  0.77656711  0.74731470  0.79870294    -0.79100
O3142       O  0.98726047  0.80757821  0.77274531    -0.90800
O3143       O  0.92932955  0.89587271  0.79581128    -0.76700
O3144       O  0.86650025  0.82033914  0.81011351    -0.86200
O3145       O  0.97342372  0.85230451  0.80893350    -0.85900
O3146       O  0.86427373  0.75188553  0.81115832    -0.72700
O3147       O  0.95918306  0.78183678  0.81012926    -0.84800
Zr3148     Zr  0.91583798  0.79470531  0.87412572     2.26400
Zr3149     Zr  0.81653205  0.76920755  0.83248543     2.06300
Zr3150     Zr  0.51616636  0.82959125  0.83053393     2.10000
Zr3151     Zr  0.92518486  0.86823031  0.83036369     1.78800
O3152       O  0.57892010  0.81253602  0.83704352    -0.93600
O3153       O  0.85956888  0.88340117  0.83094849    -0.41400
O3154       O  0.96793956  0.84619477  0.85228982    -0.78100
O3155       O  0.87327935  0.81842122  0.85284952    -0.96700
O3156       O  0.85918433  0.74633024  0.85385794    -0.90000
O3157       O  0.96568024  0.77918719  0.85332657    -0.92900
C3158       C  0.92508674  0.88641076  0.77642783     1.00900
C3159       C  0.52914674  0.81188198  0.77835696     1.13800
C3160       C  0.79153649  0.74622768  0.77986163     1.04600
O3161       O  0.75811611  0.79047293  0.82651923    -0.95000
O3162       O  0.77988067  0.76972963  0.86641520    -0.90800
O3163       O  0.84100296  0.78709544  0.89086594    -0.83900
C3164       C  0.79720937  0.77879586  0.88517349     1.11200
O3165       O  0.91083230  0.69892940  0.80176867    -0.97000
Zr3166     Zr  0.90910478  0.73145385  0.83250684     1.88900
O3167       O  0.90888768  0.74063572  0.89177592    -0.73700
O3168       O  0.75101206  0.70875208  0.83964138    -0.52900
O3169       O  0.83432897  0.67480820  0.82861916    -0.97600
O3170       O  0.97847756  0.72020784  0.83488318    -0.54800
O3171       O  0.89459066  0.70055596  0.86644323    -0.74200
C3172       C  0.89848723  0.70954977  0.88587706     0.98200
O3173       O  0.92623830  0.80943313  0.91177145    -0.63000
O3174       O  0.57952839  0.89007289  0.82174420    -0.57800
O3175       O  0.49277223  0.83826221  0.88889075    -0.94500
O3176       O  0.55390748  0.85130754  0.86473308    -0.92900
O3177       O  0.00330621  0.92331516  0.83050413    -0.93300
O3178       O  0.92964163  0.90448285  0.86012711    -0.92100
C3179       C  0.53812026  0.85333433  0.88320866     1.17000
H3180       H  0.99591578  0.87160290  0.79964268     0.32900
H3181       H  0.85693912  0.82783942  0.86132450     0.43800
H3182       H  0.98554636  0.77279012  0.86226917     0.37300
H3183       H  0.84372465  0.73111183  0.80321202     0.33800
H3184       H  0.87516585  0.90823766  0.82555930     0.25600
H3185       H  0.72021131  0.70921208  0.83636043     0.31500
H3186       H  0.84052050  0.99056249  0.83678557     0.37400
H3187       H  0.99614634  0.94119726  0.82381764     0.31900
H3188       H  0.57789560  0.90417408  0.83351842     0.30800
H3189       H  0.60995842  0.83504310  0.83881531     0.32500
H3190       H  0.98098824  0.71509605  0.85016983     0.31400
H3191       H  0.93829228  0.89408348  0.87253325     0.35400
H3192       H  0.91477696  0.82683905  0.91350240     0.28200
H3193       H  0.89649035  0.80056627  0.74392911     0.32400
H3194       H  0.91296567  0.01073461  0.80857563     0.35200
H3195       H  0.61109616  0.89018266  0.82387807     0.27900
H3196       H  0.90174660  0.78785290  0.91965216     0.40700
H3197       H  0.76628811  0.80878120  0.83724754     0.30800
H3198       H  0.83703288  0.86960858  0.81943899     0.38400
H3199       H  0.00800400  0.74345339  0.83187377     0.30200
H3200       H  0.75420885  0.69478103  0.82818008     0.30300
H3201       H  0.90596696  0.76893093  0.74963915     0.30600
C3202       C  0.74879961  0.79483654  0.56369541     0.02700
C3203       C  0.79511328  0.79640296  0.56305614    -0.13500
C3204       C  0.83364031  0.81920965  0.57630658     0.00200
C3205       C  0.82579133  0.84090683  0.58987625    -0.12000
C3206       C  0.77990754  0.83945506  0.59074101     0.02700
C3207       C  0.74132595  0.81636638  0.57774704    -0.11400
H3208       H  0.80104420  0.77969883  0.55233014     0.08300
H3209       H  0.85472963  0.85779228  0.60060505     0.05800
H3210       H  0.70575677  0.81509571  0.57862826     0.05600
C3211       C  0.59940696  0.90473328  0.59626913     0.02700
C3212       C  0.61652028  0.93061039  0.57977095    -0.13500
C3213       C  0.58408599  0.93069757  0.56443644     0.00200
C3214       C  0.53380532  0.90489052  0.56555011    -0.12000
C3215       C  0.51637046  0.87867809  0.58183525     0.02700
C3216       C  0.54944694  0.87898200  0.59721180    -0.11400
H3217       H  0.65476169  0.95127574  0.57911786     0.08300
H3218       H  0.50866146  0.90482867  0.55353110     0.05800
H3219       H  0.53643202  0.85833823  0.60956402     0.05600
C3220       C  0.96130008  0.72078141  0.56554807     0.02700
C3221       C  0.45328895  0.75008583  0.56570956    -0.13500
C3222       C  0.92111663  0.75106776  0.58048217     0.00200
C3223       C  0.89765538  0.72382545  0.59587215    -0.12000
C3224       C  0.90609913  0.69480078  0.59633868     0.02700
C3225       C  0.93820270  0.69337702  0.58118917    -0.11400
H3226       H  0.47218497  0.77174714  0.55416692     0.08300
H3227       H  0.87366472  0.72548957  0.60769168     0.05800
H3228       H  0.94490926  0.00444361  0.58123777     0.05600
C3229       C  0.88022641  0.81803893  0.57766395     0.79800
N3230       N  0.92473678  0.84844183  0.57883779    -0.78500
C3231       C  0.96688253  0.84647685  0.58121330     0.82200
N3232       N  0.96406009  0.81448181  0.58246047    -0.78500
C3233       C  0.92038719  0.78438780  0.58140802     0.82300
N3234       N  0.87835064  0.78605425  0.57885847    -0.80200
Zr3235     Zr  0.75499247  0.92420442  0.70658820     2.17500
O3236       O  0.74628048  0.90936743  0.74480208    -0.51800
O3237       O  0.74795952  0.97012543  0.72579612    -0.75000
O3238       O  0.82970677  0.93045897  0.72292533    -0.81800
O3239       O  0.61921461  0.85393400  0.69704476    -0.83500
O3240       O  0.89159076  0.96215096  0.69897709    -0.79100
O3241       O  0.68299739  0.87201684  0.72016612    -0.90800
O3242       O  0.73299320  0.67018711  0.70128046    -0.76700
O3243       O  0.80503468  0.97815647  0.68709572    -0.86200
O3244       O  0.69811092  0.93575363  0.68718866    -0.85900
O3245       O  0.80633837  0.91173621  0.68370362    -0.72700
O3246       O  0.70972586  0.87487076  0.68403502    -0.84800
Zr3247     Zr  0.75705868  0.92976695  0.62161476     2.26400
Zr3248     Zr  0.85646365  0.96611104  0.66420636     2.06300
Zr3249     Zr  0.65453734  0.88738877  0.66400284     2.10000
Zr3250     Zr  0.74785766  0.98882467  0.66707604     1.78800
O3251       O  0.59654564  0.82690577  0.65464517    -0.93600
O3252       O  0.81333084  0.71584592  0.67193586    -0.41400
O3253       O  0.70395361  0.94092230  0.64383381    -0.78100
O3254       O  0.80085935  0.97935305  0.64443786    -0.96700
O3255       O  0.81257296  0.91723800  0.64114954    -0.90000
O3256       O  0.70594118  0.87595887  0.64094235    -0.92900
C3257       C  0.73835100  0.99496310  0.72073023     1.00900
C3258       C  0.63817009  0.85213173  0.71490248     1.13800
C3259       C  0.87514741  0.94599061  0.71726734     1.04600
O3260       O  0.91790282  0.69239332  0.67241905    -0.95000
O3261       O  0.89392030  0.66485071  0.63010651    -0.90800
O3262       O  0.83263895  0.97719226  0.60559381    -0.83900
C3263       C  0.87672490  0.66513924  0.61139293     1.11200
O3264       O  0.75853747  0.82518373  0.69046322    -0.97000
Zr3265     Zr  0.76120703  0.86397713  0.66101448     1.88900
O3266       O  0.76093517  0.88281452  0.60252455    -0.73700
O3267       O  0.92081120  0.95174166  0.65610998    -0.52900
O3268       O  0.83631460  0.85977985  0.66306540    -0.97600
O3269       O  0.69355680  0.80410990  0.65631250    -0.54800
O3270       O  0.77656913  0.84961924  0.62651444    -0.74200
C3271       C  0.77142506  0.85845357  0.60754806     0.98200
O3272       O  0.74998872  0.94452050  0.58430739    -0.63000
O3273       O  0.58914455  0.90056271  0.67289145    -0.57800
O3274       O  0.67968993  0.92031892  0.60698114    -0.94500
O3275       O  0.61681504  0.88986152  0.63061652    -0.92900
O3276       O  0.67190105  0.99171988  0.66427915    -0.93300
O3277       O  0.75206336  0.69454683  0.63744195    -0.92100
C3278       C  0.63397893  0.90469831  0.61230253     1.17000
H3279       H  0.67519907  0.93779479  0.69657457     0.32900
H3280       H  0.81812584  0.66820141  0.63665246     0.43800
H3281       H  0.68627080  0.85716736  0.63141676     0.37300
H3282       H  0.82556433  0.90286801  0.69092426     0.33800
H3283       H  0.79600408  0.72853581  0.67651925     0.25600
H3284       H  0.95168758  0.97264125  0.66051900     0.31500
H3285       H  0.82823302  0.83731287  0.65625171     0.37400
H3286       H  0.64980193  0.64244886  0.67301047     0.31900
H3287       H  0.55862109  0.88040215  0.66753329     0.30800
H3288       H  0.56422591  0.82273779  0.65998655     0.32500
H3289       H  0.68760527  0.80195138  0.64077516     0.31400
H3290       H  0.74075853  0.67929688  0.62489258     0.35400
H3291       H  0.76064507  0.97009104  0.58358352     0.28200
H3292       H  0.77170340  0.93062978  0.75191442     0.32400
H3293       H  0.75809422  0.80466165  0.68377475     0.35200
H3294       H  0.58551173  0.89790175  0.68860742     0.27900
H3295       H  0.77364756  0.60572245  0.57601809     0.40700
H3296       H  0.90327833  0.70699727  0.66741559     0.30800
H3297       H  0.83090746  0.71455466  0.68481734     0.38400
H3298       H  0.66434950  0.80422869  0.66234431     0.30200
H3299       H  0.91581888  0.93287857  0.66667811     0.30300
H3300       H  0.75676622  0.89138275  0.74701560     0.30600
C3301       C  0.92094927  0.93770507  0.42958509     0.02700
C3302       C  0.92944910  0.91679871  0.41540847    -0.13500
C3303       C  0.89158637  0.89420715  0.40193655     0.00200
C3304       C  0.84567862  0.89269820  0.40251731    -0.12000
C3305       C  0.83704079  0.91360685  0.41641678     0.02700
C3306       C  0.87474613  0.93601974  0.42998547    -0.11400
H3307       H  0.96499217  0.91798552  0.41491704     0.08300
H3308       H  0.81712339  0.87598708  0.39159108     0.05800
H3309       H  0.86817435  0.95221132  0.44089797     0.05600
C3310       C  0.57016188  0.83039579  0.39834549     0.02700
C3311       C  0.55436709  0.80554531  0.41546809    -0.13500
C3312       C  0.58862718  0.80463796  0.42952575     0.00200
C3313       C  0.63892122  0.82863351  0.42676427    -0.12000
C3314       C  0.65495447  0.85417187  0.41026875     0.02700
C3315       C  0.62050007  0.85475546  0.39594127    -0.11400
H3316       H  0.01600345  0.78637977  0.41766335     0.08300
H3317       H  0.66526082  0.82830203  0.43800082     0.05800
H3318       H  0.63281711  0.87500491  0.38336724     0.05600
C3319       C  0.69735790  0.67092565  0.42827886     0.02700
C3320       C  0.72336099  0.69962425  0.41360102    -0.13500
C3321       C  0.76237385  0.70145059  0.40129790     0.00200
C3322       C  0.77356652  0.00788155  0.40301742    -0.12000
C3323       C  0.74605918  0.97887116  0.41661632     0.02700
C3324       C  0.70848815  0.97754024  0.42922236    -0.11400
H3325       H  0.71456433  0.72081546  0.41227603     0.08300
H3326       H  0.80220671  0.00834948  0.39302800     0.05800
H3327       H  0.68774321  0.95489875  0.43991893     0.05600
C3328       C  0.79017063  0.91406328  0.41555971     0.79800
N3329       N  0.79096407  0.94557079  0.41652105    -0.78500
C3330       C  0.74836981  0.94656065  0.41487104     0.82200
N3331       N  0.70560829  0.91662505  0.41213248    -0.78500
C3332       C  0.70399705  0.88526874  0.41117926     0.82300
N3333       N  0.74638014  0.88360793  0.41307334    -0.80200
Zr3334     Zr  0.57642832  0.69736809  0.45476193     2.17500
O3335       O  0.57788305  0.70485080  0.41595324    -0.51800
O3336       O  0.50182154  0.64863817  0.43926511    -0.75000
O3337       O  0.63665647  0.68583389  0.43759029    -0.81800
O3338       O  0.55862912  0.77858218  0.46375977    -0.83500
O3339       O  0.65535501  0.98831449  0.46118891    -0.79100
O3340       O  0.58158065  0.75085896  0.43977261    -0.90800
O3341       O  0.94385190  0.95397128  0.46462202    -0.76700
O3342       O  0.55071961  0.64529982  0.47629354    -0.86200
O3343       O  0.51040447  0.69358396  0.47586641    -0.85900
O3344       O  0.64826845  0.70931393  0.47556911    -0.72700
O3345       O  0.60891813  0.74959271  0.47561164    -0.84800
Zr3346     Zr  0.59054203  0.70312342  0.53956929     2.26400
Zr3347     Zr  0.62263677  0.99021922  0.49638530     2.06300
Zr3348     Zr  0.54364273  0.74504474  0.49744160     2.10000
Zr3349     Zr  0.98539987  0.97512182  0.49758961     1.78800
O3350       O  0.57478127  0.80598024  0.50764505    -0.93600
O3351       O  0.95849023  0.91206729  0.49901073    -0.41400
O3352       O  0.52027036  0.69346178  0.51895781    -0.78100
O3353       O  0.55521920  0.98404024  0.51795554    -0.96700
O3354       O  0.65636449  0.70843797  0.51789195    -0.90000
O3355       O  0.61403798  0.75566770  0.51846935    -0.92900
C3356       C  0.95814245  0.95935397  0.44521461     1.00900
C3357       C  0.57385440  0.77586005  0.44525860     1.13800
C3358       C  0.65994312  0.66953742  0.44321480     1.04600
O3359       O  0.59715192  0.92890630  0.48901766    -0.95000
O3360       O  0.61241358  0.95710309  0.53006224    -0.90800
O3361       O  0.59411060  0.98587297  0.55517452    -0.83900
C3362       C  0.60016953  0.96035022  0.54910335     1.11200
O3363       O  0.72127521  0.79513054  0.46422860    -0.97000
Zr3364     Zr  0.67906122  0.76049733  0.49630139     1.88900
O3365       O  0.66604399  0.75168819  0.55495183    -0.73700
O3366       O  0.70502087  0.66816651  0.50512766    -0.52900
O3367       O  0.75697078  0.76152909  0.49006907    -0.97600
O3368       O  0.70153297  0.82252248  0.49898244    -0.54800
O3369       O  0.72398591  0.77743480  0.52888456    -0.74200
C3370       C  0.71031799  0.77306320  0.54835529     0.98200
O3371       O  0.58201891  0.03285296  0.57812625    -0.63000
O3372       O  0.96675146  0.74330718  0.48828547    -0.57800
O3373       O  0.52238145  0.70708262  0.55527043    -0.94500
O3374       O  0.50114469  0.73791160  0.53168867    -0.92900
O3375       O  0.91192386  0.98090014  0.50117411    -0.93300
O3376       O  0.93585798  0.94223605  0.52866729    -0.92100
C3377       C  0.49733577  0.72221720  0.54996593     1.17000
H3378       H  0.48385213  0.69192971  0.46706467     0.32900
H3379       H  0.53916770  0.96222674  0.52620336     0.43800
H3380       H  0.62432078  0.77596001  0.52724590     0.37300
H3381       H  0.67799867  0.71603586  0.46758164     0.33800
H3382       H  0.92299671  0.90028298  0.49553075     0.25600
H3383       H  0.70645915  0.98047114  0.49944123     0.31500
H3384       H  0.78255474  0.78409842  0.49589804     0.37400
H3385       H  0.88563051  0.96015238  0.49400517     0.31900
H3386       H  0.94077168  0.72092075  0.49488350     0.30800
H3387       H  0.54829233  0.81133557  0.50370700     0.32500
H3388       H  0.70590164  0.82747455  0.51437785     0.31400
H3389       H  0.95142973  0.95816297  0.54069502     0.35400
H3390       H  0.05507742  0.00940672  0.58188060     0.28200
H3391       H  0.57188712  0.68211499  0.41016181     0.32400
H3392       H  0.75335414  0.81445502  0.46899643     0.32800
H3393       H  0.96627515  0.76203191  0.49674311     0.27900
H3394       H  0.61238127  0.03375443  0.58371285     0.40700
H3395       H  0.57348555  0.92286332  0.47718065     0.30800
H3396       H  0.97425009  0.90827734  0.48645404     0.38400
H3397       H  0.67122075  0.82333205  0.49520676     0.30200
H3398       H  0.72676108  0.68923534  0.49613723     0.30300
H3399       H  0.61246748  0.72187238  0.41193232     0.30600
C3400       C  0.89543879  0.99253537  0.23411426     0.02700
C3401       C  0.94189557  0.99447364  0.23347661    -0.13500
C3402       C  0.98019716  0.01729178  0.24676599     0.00200
C3403       C  0.97248166  0.70487746  0.26036339    -0.12000
C3404       C  0.92628299  0.70287877  0.26154800     0.02700
C3405       C  0.88740424  0.01363248  0.24837612    -0.11400
H3406       H  0.94830273  0.97827345  0.22251228     0.08300
H3407       H  0.50162775  0.72211220  0.27082047     0.05800
H3408       H  0.85183135  0.01237124  0.24905640     0.05600
C3409       C  0.74621598  0.76950125  0.26500413     0.02700
C3410       C  0.76359217  0.79530681  0.24845546    -0.13500
C3411       C  0.73184504  0.79498814  0.23266810     0.00200
C3412       C  0.68165472  0.76906139  0.23349198    -0.12000
C3413       C  0.66373213  0.74292342  0.24983567     0.02700
C3414       C  0.69633310  0.74336376  0.26558421    -0.11400
H3415       H  0.80167651  0.81625991  0.24806641     0.08300
H3416       H  0.65691485  0.76888073  0.22122691     0.05800
H3417       H  0.68308998  0.72271698  0.27793211     0.05600
C3418       C  0.61357490  0.92220698  0.23308141     0.02700
C3419       C  0.60476303  0.95070230  0.23288691    -0.13500
C3420       C  0.57041216  0.95118630  0.24677562     0.00200
C3421       C  0.54286167  0.92215560  0.26052612    -0.12000
C3422       C  0.55182021  0.89341077  0.26119459     0.02700
C3423       C  0.58757646  0.89355566  0.24760345    -0.11400
H3424       H  0.62586615  0.97330095  0.22221509     0.08300
H3425       H  0.51631977  0.92266644  0.27141851     0.05800
H3426       H  0.59424033  0.87130849  0.24801473     0.05600
C3427       C  0.52733253  0.68315935  0.24655763     0.79800
N3428       N  0.52669592  0.98536280  0.24751638    -0.78500
C3429       C  0.56933836  0.98427131  0.24832623     0.82200
N3430       N  0.61159400  0.67968515  0.24873980    -0.78500
C3431       C  0.61421641  0.71160030  0.24869039     0.82300
N3432       N  0.57186489  0.71356277  0.24758647    -0.80200
Zr3433     Zr  0.72914329  0.89827347  0.12284335     2.17500
O3434       O  0.73287371  0.90796567  0.08413566    -0.51800
O3435       O  0.65467904  0.85066220  0.10639500    -0.75000
O3436       O  0.78904974  0.88699081  0.10534653    -0.81800
O3437       O  0.71116984  0.97930519  0.13259347    -0.83500
O3438       O  0.80990192  0.85679006  0.12958942    -0.79100
O3439       O  0.73461416  0.95214817  0.10843752    -0.90800
O3440       O  0.59631660  0.82155170  0.13195407    -0.76700
O3441       O  0.70298475  0.84527078  0.14358735    -0.86200
O3442       O  0.66230922  0.89343061  0.14373791    -0.85900
O3443       O  0.80006110  0.90929721  0.14414392    -0.72700
O3444       O  0.76133961  0.94994545  0.14422940    -0.84800
Zr3445     Zr  0.73985694  0.90088335  0.20773306     2.26400
Zr3446     Zr  0.77322010  0.85551668  0.16466547     2.06300
Zr3447     Zr  0.69496889  0.94428993  0.16568625     2.10000
Zr3448     Zr  0.63730396  0.84126516  0.16516025     1.78800
O3449       O  0.72202605  0.00453934  0.17629229    -0.93600
O3450       O  0.61487595  0.77902283  0.16489438    -0.41400
O3451       O  0.67036155  0.89188586  0.18666651    -0.78100
O3452       O  0.70528586  0.84919098  0.18600463    -0.96700
O3453       O  0.80669589  0.90684669  0.18644751    -0.90000
O3454       O  0.76415358  0.95403879  0.18726763    -0.92900
C3455       C  0.61094039  0.82746354  0.11259041     1.00900
C3456       C  0.72667671  0.97696516  0.11408465     1.13800
C3457       C  0.81308034  0.87125987  0.11090022     1.04600
O3458       O  0.74568268  0.79480012  0.15505056    -0.95000
O3459       O  0.75956109  0.82096210  0.19810561    -0.90800
O3460       O  0.74421012  0.85081612  0.22355528    -0.83900
C3461       C  0.74848359  0.82463982  0.21728721     1.11200
O3462       O  0.87564032  0.99293669  0.13370846    -0.97000
Zr3463     Zr  0.83017701  0.95966646  0.16557853     1.88900
O3464       O  0.81375825  0.94867105  0.22446425    -0.73700
O3465       O  0.85302800  0.86242307  0.17466539    -0.52900
O3466       O  0.90891376  0.96125604  0.16121048    -0.97600
O3467       O  0.84851724  0.68765383  0.16872987    -0.54800
O3468       O  0.87233804  0.97688224  0.19888655    -0.74200
C3469       C  0.85788157  0.97119533  0.21829681     0.98200
O3470       O  0.72643012  0.89543649  0.24633739    -0.63000
O3471       O  0.61428128  0.93598428  0.15593434    -0.57800
O3472       O  0.67278552  0.90641793  0.22303524    -0.94500
O3473       O  0.65499526  0.93962899  0.19984272    -0.92900
O3474       O  0.56030346  0.84230175  0.16886715    -0.93300
O3475       O  0.58863650  0.80899576  0.19657550    -0.92100
C3476       C  0.64965381  0.92299445  0.21781264     1.17000
H3477       H  0.63601748  0.89205701  0.13487696     0.32900
H3478       H  0.68858552  0.82733835  0.19419001     0.43800
H3479       H  0.77379906  0.97396817  0.19630334     0.37300
H3480       H  0.82995230  0.91644252  0.13618088     0.33800
H3481       H  0.57842377  0.76601044  0.16446093     0.25600
H3482       H  0.85526110  0.84354744  0.16712026     0.31500
H3483       H  0.93358721  0.98370511  0.16750101     0.37400
H3484       H  0.53473877  0.81940696  0.16339263     0.31900
H3485       H  0.59056574  0.91376203  0.16349963     0.30800
H3486       H  0.69334158  0.67336083  0.17815930     0.32500
H3487       H  0.84755933  0.69135992  0.18417255     0.31400
H3488       H  0.59931597  0.82690728  0.20773078     0.35400
H3489       H  0.70035783  0.87071943  0.24939539     0.28200
H3490       H  0.72620697  0.88538548  0.07787468     0.32400
H3491       H  0.90454568  0.68147571  0.13940522     0.35200
H3492       H  0.61148576  0.95469608  0.16339918     0.27900
H3493       H  0.75657387  0.89698973  0.25263779     0.40700
H3494       H  0.71012120  0.78192926  0.15869472     0.30800
H3495       H  0.62526083  0.77571467  0.15064893     0.38400
H3496       H  0.81941441  0.68831390  0.16286934     0.30200
H3497       H  0.87736342  0.88462652  0.16727301     0.30300
H3498       H  0.76780115  0.92470102  0.08047002     0.30600
Zr3499     Zr  0.90527629  0.79623813  0.28931569     2.17500
O3500       O  0.89375505  0.80617830  0.25170720    -0.51800
O3501       O  0.91030484  0.74829863  0.27199759    -0.75000
O3502       O  0.47836017  0.84287000  0.27143949    -0.81800
O3503       O  0.76482762  0.75756759  0.30007912    -0.83500
O3504       O  0.54181509  0.86485325  0.29487262    -0.79100
O3505       O  0.82643577  0.78497150  0.27549376    -0.90800
O3506       O  0.92197928  0.71475252  0.29724540    -0.76700
O3507       O  0.96109218  0.78446155  0.30917878    -0.86200
O3508       O  0.85433200  0.74490042  0.31084107    -0.85900
O3509       O  0.95126792  0.84838868  0.30983293    -0.72700
O3510       O  0.85507088  0.81083964  0.31118543    -0.84800
Zr3511     Zr  0.91002757  0.80010225  0.37396469     2.26400
Zr3512     Zr  0.00757730  0.83631352  0.32974522     2.06300
Zr3513     Zr  0.80589168  0.75993945  0.33353692     2.10000
Zr3514     Zr  0.90988694  0.73368949  0.33121231     1.78800
O3515       O  0.74533416  0.77810274  0.34149830    -0.93600
O3516       O  0.98061156  0.72504833  0.33722600    -0.41400
O3517       O  0.86151618  0.74812288  0.35389280    -0.78100
O3518       O  0.95878304  0.78442407  0.35174291    -0.96700
O3519       O  0.95901917  0.85142830  0.35225255    -0.90000
O3520       O  0.85263678  0.81098172  0.35451171    -0.92900
C3521       C  0.91835898  0.72307264  0.27789584     1.00900
C3522       C  0.78104561  0.77030650  0.28125950     1.13800
C3523       C  0.52314420  0.86416269  0.27643717     1.04600
O3524       O  0.57120027  0.82148855  0.32183073    -0.95000
O3525       O  0.54895193  0.84086296  0.36345569    -0.90800
O3526       O  0.98956216  0.81531851  0.38907088    -0.83900
C3527       C  0.53406810  0.82927745  0.38262574     1.11200
O3528       O  0.90250895  0.89822167  0.30185915    -0.97000
Zr3529     Zr  0.90171220  0.86154987  0.33222150     1.88900
O3530       O  0.90461271  0.84750752  0.39162505    -0.73700
O3531       O  0.56689006  0.89795893  0.33604593    -0.52900
O3532       O  0.97250472  0.92104516  0.33240809    -0.97600
O3533       O  0.82758900  0.86701550  0.33018072    -0.54800
O3534       O  0.89779702  0.88337237  0.36640807    -0.74200
C3535       C  0.89966769  0.87410245  0.38572310     0.98200
O3536       O  0.91963835  0.78893760  0.41159030    -0.63000
O3537       O  0.74409044  0.69884873  0.32732910    -0.57800
O3538       O  0.83713786  0.75022853  0.39014789    -0.94500
O3539       O  0.77137824  0.73150984  0.36814537    -0.92900
O3540       O  0.83934910  0.67479884  0.32736334    -0.93300
O3541       O  0.89922005  0.69380744  0.36131401    -0.92100
C3542       C  0.79141838  0.73043392  0.38587714     1.17000
H3543       H  0.83348444  0.72513923  0.30210557     0.32900
H3544       H  0.97915707  0.77757046  0.35992304     0.43800
H3545       H  0.83104607  0.81453635  0.36388542     0.37300
H3546       H  0.96757642  0.86996808  0.30136148     0.33800
H3547       H  0.97302768  0.70341185  0.32950790     0.25600
H3548       H  0.59879519  0.90078907  0.33110725     0.31500
H3549       H  0.96099749  0.93540139  0.33995808     0.37400
H3550       H  0.85202823  0.99399085  0.32218175     0.31900
H3551       H  0.75290223  0.68450622  0.33704330     0.30800
H3552       H  0.71434525  0.75571816  0.34436714     0.32500
H3553       H  0.81074628  0.85784164  0.34413647     0.31400
H3554       H  0.89475581  0.70536862  0.37382965     0.35400
H3555       H  0.89297902  0.79021911  0.41933984     0.28200
H3556       H  0.91854841  0.80302904  0.24368448     0.32400
H3557       H  0.90004855  0.91807673  0.30796491     0.35200
H3558       H  0.71314957  0.69624064  0.33338222     0.27900
H3559       H  0.91137722  0.76384141  0.41292574     0.40700
H3560       H  0.56325391  0.81130095  0.30748483     0.30800
H3561       H  0.50521188  0.74178498  0.32724542     0.38400
H3562       H  0.80625960  0.84904662  0.31992738     0.30200
H3563       H  0.55904339  0.91182295  0.32550835     0.30300
H3564       H  0.90418805  0.83163768  0.24996155     0.30600
loop_ 
_geom_bond_atom_site_label_1 
_geom_bond_atom_site_label_2 
_geom_bond_distance 
_geom_bond_site_symmetry_2 
_ccdc_geom_bond_type 
C1            C2   1.407       .  A
C1            C6   1.404       .  A
C1          C485   1.473       .  S
C2         C1785   1.405   1_455  A
C2            H7   1.084       .  S
C3            C4   1.394       .  A
C3         C1784   1.403       .  A
C3           C28   1.471       .  S
C4         C1787   1.399       .  A
C4            H8   1.085       .  S
C5            C6   1.404       .  A
C5         C1786   1.398   1_455  A
C5           C89   1.456       .  S
C6            H9   1.084       .  S
C10          C11   1.390       .  A
C10          C15   1.422       .  A
C10         C487   1.480       .  S
C11          C12   1.393       .  A
C11          H16   1.085       .  S
C12          C13   1.390       .  A
C12          C30   1.446       .  S
C13          C14   1.398       .  A
C13          H17   1.085       .  S
C14          C15   1.415       .  A
C14          C90   1.474       .  S
C15          H18   1.083       .  S
C19          C24   1.403       .  A
C19        C1208   1.404       .  A
C19          C91   1.475       .  S
C20          C21   1.397       .  A
C20         C613   1.405       .  A
C20          H25   1.084       .  S
C21         C616   1.400       .  A
C21         C486   1.451       .  S
C22          C23   1.393       .  A
C22        C1209   1.400       .  A
C22          H26   1.085       .  S
C23          C24   1.405       .  A
C23          C32   1.462       .  S
C24          H27   1.084       .  S
C28          N29   1.360       .  A
C28          N33   1.369       .  A
N29          C30   1.352       .  A
C30          N31   1.342       .  A
N31          C32   1.341       .  A
C32          N33   1.362       .  A
C34          C39   1.393       .  A
C34         C629   1.418       .  A
C34         C110   1.474       .  S
C35          C36   1.415       .  A
C35        C1222   1.418   1_545  A
C35          H40   1.083       .  S
C36        C1225   1.410   1_545  A
C36         C202   1.489       .  S
C37          C38   1.404       .  A
C37         C630   1.410       .  A
C37          H41   1.084       .  S
C38          C39   1.389       .  A
C38          C54   1.465       .  S
C39          H42   1.085       .  S
C43          C44   1.406       .  A
C43          C48   1.396       .  A
C43          C95   1.455       .  S
C44          C45   1.402       .  A
C44          H49   1.084       .  S
C45          C46   1.401       .  A
C45          C56   1.477       .  S
C46          C47   1.404       .  A
C46          H50   1.085       .  S
C47          C48   1.395       .  A
C47         C194   1.455       .  S
C48          H51   1.084       .  S
C52          C62   1.465       .  S
C52          N53   1.354       .  A
C52          N57   1.362       .  A
N53          C54   1.353       .  A
C54          N55   1.360       .  A
N55          C56   1.358       .  A
C56          N57   1.359       .  A
C58          C59   1.401       .  A
C58          C63   1.409       .  A
C58         C103   1.475       .  S
C59          C60   1.406       .  A
C59          H64   1.084       .  S
C60          C61   1.396       .  A
C60         C209   1.462       .  S
C61          C62   1.393       .  A
C61          H65   1.085       .  S
C62          C63   1.404       .  A
C63          H66   1.084       .  S
Zr67         O68   2.443       .  S
Zr67         O77   2.413       .  S
Zr67         O78   2.403       .  S
Zr67        O669   2.381       .  S
Zr67        O670   2.383       .  S
Zr67        O663   2.444       .  S
Zr67        O664   2.435       .  S
Zr67       O1855   2.430   1_455  S
O68         H124   0.990       .  S
O68         H132   0.991       .  S
O69       Zr1255   2.439   1_545  S
O69          C89   1.282       .  A
O70       Zr1255   2.438   1_545  S
O70          C91   1.285       .  A
O71         Zr81   2.454   1_554  S
O71          C90   1.287       .  A
O72         Zr80   2.425   1_554  S
O72          C91   1.284       .  A
O73       Zr1849   2.433       .  S
O73          C90   1.284       .  A
O74         Zr82   2.387       .  S
O74          C89   1.275       .  A
O75         Zr80   2.397   1_554  S
O75         Zr82   2.379       .  S
O75       Zr1255   2.377   1_545  S
O76         Zr82   2.378       .  S
O76       Zr1255   2.386   1_545  S
O76       Zr3051   2.398   1_444  S
O76        H1893   0.966   1_455  S
O77         Zr97   2.380   1_554  S
O77        Zr674   2.403   1_554  S
O77         H114   0.965       .  S
O78         Zr97   2.390   1_554  S
O78       Zr1863   2.388   1_454  S
Zr79        O104   2.444       .  S
Zr79         O85   2.399       .  S
Zr79         O86   2.416       .  S
Zr79       O1275   2.373   1_545  S
Zr79       O1276   2.390   1_545  S
Zr79         O94   2.426       .  S
Zr79       O1286   2.467   1_545  S
Zr79       O1294   2.428   1_445  S
Zr80         O99   2.434       .  S
Zr80         O92   2.435   1_556  S
Zr80         O86   2.397       .  S
Zr80       O1265   2.403   1_546  S
Zr80       O1275   2.394   1_545  S
Zr80         O93   2.436       .  S
Zr81         O83   2.436       .  S
Zr81        O105   2.437   1_556  S
Zr81       O2452   2.400   1_556  S
Zr81       O1860   2.389   1_556  S
Zr81       O2461   2.375       .  S
Zr81       O1870   2.404       .  S
Zr81        O107   2.451       .  S
Zr82        O109   2.435   1_554  S
Zr82         O84   2.437       .  S
Zr82       O1890   2.434   1_455  S
Zr82         O85   2.374   1_554  S
Zr82         O86   2.377   1_554  S
O83         H120   0.990       .  S
O84         H115   0.990       .  S
O84         H129   0.990       .  S
O85       Zr3051   2.377   1_445  S
O86         H112   0.963       .  S
O87         Zr97   2.388       .  S
O87        Zr673   2.377       .  S
O87        Zr674   2.393       .  S
O88         Zr97   2.392       .  S
O88        Zr673   2.391       .  S
O88       Zr1863   2.406   1_455  S
O88         H113   0.966   1_455  S
O92         H128   0.990   1_554  S
O93          C95   1.284       .  A
O94          C95   1.280       .  A
O96         Zr97   2.442   1_554  S
O96         H125   0.990       .  S
Zr97        O100   2.440   1_556  S
Zr97        O101   2.444       .  S
Zr97        O102   2.398       .  S
O98        Zr673   2.469       .  S
O98         C103   1.288       .  A
O99         H116   0.990       .  S
O99        H1319   0.990   1_556  S
O100        H117   0.990   1_554  S
O101        H121   0.990       .  S
O101       H1912   0.989   1_455  S
O102        C103   1.275       .  A
O104        H123   0.991       .  S
O104        H127   0.990       .  S
O105        H119   0.990       .  S
O105        H126   0.990       .  S
O106       Zr673   2.437   1_655  S
O106       C1892   1.282       .  A
O107        C110   1.291       .  A
O108      Zr1864   2.434   1_556  S
O108       H1900   0.990       .  S
O109        H122   0.990       .  S
C110       O1888   1.280       .  A
H111       O1858   0.966       .  S
H118       O1890   0.990   1_556  S
H130       O1883   0.989       .  S
H131        O693   0.990   1_554  S
C133        C134   1.392       .  A
C133        C138   1.423       .  A
C133        C289   1.480       .  S
C134        C135   1.391       .  A
C134        H733   1.085       .  S
C135        C136   1.397       .  A
C135       C2540   1.456       .  S
C136        C137   1.401       .  A
C136        H140   1.085       .  S
C137        C138   1.418       .  A
C137        C188   1.484       .  S
C138        H141   1.083       .  S
H139       C1322   1.085       .  S
C142        C143   1.402       .  A
C142        C147   1.403       .  A
C142       C1475   1.467   1_545  S
C143        C144   1.408       .  A
C143        H148   1.084       .  S
C144        C145   1.393       .  A
C144        C190   1.459       .  S
C145        C146   1.392       .  A
C145        H149   1.085       .  S
C146        C147   1.399       .  A
C146        C160   1.458       .  S
C147       H1338   1.085   1_545  S
H150        C741   1.085       .  S
C151        C152   1.398       .  A
C151        C156   1.401       .  A
C151        C288   1.452       .  S
C152        C153   1.397       .  A
C152        H157   1.084       .  S
C153        C154   1.398       .  A
C153        C189   1.453       .  S
C154        C155   1.398       .  A
C154       H1940   1.085       .  S
C155        C156   1.398       .  A
C155        C162   1.460       .  S
C156        H159   1.085       .  S
H158       C1936   1.085       .  S
C160        N161   1.359       .  A
C160        N165   1.355       .  A
N161        C162   1.354       .  A
C162        N163   1.350       .  A
N163        C164   1.354       .  A
C164       C3105   1.455   1_445  S
C164        N165   1.353       .  A
Zr166       O167   2.444       .  S
Zr166       O174   2.376       .  S
Zr166       O175   2.381       .  S
Zr166       O176   2.420       .  S
Zr166       O177   2.407       .  S
Zr166       O168   2.473       .  S
Zr166       O169   2.422       .  S
Zr166       O172   2.415       .  S
O167        H223   0.990       .  S
O167        H231   0.991       .  S
O168        C188   1.288       .  A
O169        C190   1.280       .  A
O170       Zr180   2.432       .  S
O170        C189   1.284       .  A
O171       Zr179   2.425       .  S
O171        C190   1.284       .  A
O172       C1971   1.279       .  A
O173       Zr181   2.417       .  S
O173        C188   1.279       .  A
O174       Zr179   2.402       .  S
O174       Zr181   2.382       .  S
O175       Zr181   2.375       .  S
O175      Zr1962   2.401       .  S
O175        H210   0.966       .  S
O176       Zr179   2.399       .  S
O176       Zr196   2.382       .  S
O176        H213   0.963       .  S
O177       Zr196   2.389       .  S
O177      Zr1962   2.382       .  S
Zr178       O203   2.442       .  S
Zr178       O184   2.409       .  S
Zr178       O185   2.421       .  S
Zr178       O186   2.375       .  S
Zr178       O187   2.382       .  S
Zr178       O197   2.483       .  S
Zr178       O193   2.433       .  S
Zr178      O1987   2.421       .  S
Zr179       O198   2.436       .  S
Zr179       O191   2.437       .  S
Zr179       O185   2.398       .  S
Zr179       O186   2.401       .  S
Zr179       O192   2.427       .  S
Zr180       O182   2.436       .  S
Zr180       O204   2.436       .  S
Zr180      O1957   2.401   1_455  S
Zr180      O1959   2.380   1_455  S
Zr180      O1966   2.386   1_455  S
Zr180      O1969   2.400   1_455  S
Zr180       O206   2.427       .  S
Zr181       O207   2.435       .  S
Zr181       O208   2.436       .  S
Zr181       O183   2.437       .  S
Zr181       O184   2.395       .  S
Zr181       O185   2.387       .  S
O182        H219   0.990       .  S
O183        H214   0.990       .  S
O183        H228   0.990       .  S
O184      Zr1962   2.383       .  S
O185        H211   0.964       .  S
O186       Zr196   2.385       .  S
O187       Zr196   2.379       .  S
O187      Zr1962   2.403       .  S
O187        H212   0.966       .  S
C189       O1954   1.279   1_455  A
O191        H227   0.990       .  S
O192        C194   1.282       .  A
O193        C194   1.282       .  A
O195       Zr196   2.439       .  S
O195       H1412   0.991       .  S
Zr196       O199   2.440       .  S
Zr196       O200   2.439       .  S
Zr196       O201   2.413       .  S
O197        C202   1.290       .  A
O198        H215   0.990       .  S
O198        H230   0.990       .  S
O199       H1404   0.990   1_545  S
O200        H220   0.990       .  S
O200        H229   0.990       .  S
O201        C202   1.279       .  A
O203        H222   0.991       .  S
O203        H226   0.990       .  S
O204        H218   0.990       .  S
O204        H225   0.990       .  S
O205      Zr1960   2.412       .  S
O205        C209   1.279   1_655  A
O206        C209   1.284       .  A
O207        H217   0.990       .  S
O208        H221   0.990       .  S
H216        O793   0.990       .  S
H224        O789   0.991       .  S
C232        C233   1.411       .  A
C232        C237   1.404       .  A
C232        C400   1.478       .  S
C233        C234   1.409       .  A
C233        H238   1.084       .  S
C234        C235   1.397       .  A
C234        C259   1.480       .  S
C235        C236   1.401       .  A
C235        H239   1.085       .  S
C236        C237   1.403       .  A
C236        C301   1.461       .  S
C237        H240   1.084       .  S
C241        C242   1.402       .  A
C241        C246   1.403       .  A
C241        C308   1.472       .  S
C242        C243   1.393       .  A
C242        H247   1.084       .  S
C243        C244   1.409       .  A
C243        C392   1.458       .  S
C244        C245   1.402       .  A
C244        H248   1.084       .  S
C245        C246   1.405       .  A
C245       C2043   1.477   1_455  S
C246        H249   1.084       .  S
C250        C255   1.416       .  A
C250       C2033   1.392       .  A
C250       C2189   1.474       .  S
C251       C2032   1.393       .  A
C251       C2034   1.392       .  A
C251        H256   1.086       .  S
C252        C253   1.399       .  A
C252       C2033   1.392       .  A
C252        C263   1.460       .  S
C253        C254   1.408       .  A
C253        H257   1.084       .  S
C254        C255   1.410       .  A
C254        C293   1.478   1_545  S
C255       H1446   1.083       .  S
H258        C849   1.083       .  S
C259        N260   1.371       .  A
C259        N264   1.362       .  A
N260        C261   1.365       .  A
C261       C2027   1.478       .  S
C261        N262   1.348       .  A
N262        C263   1.349       .  A
C263        N264   1.355       .  A
Zr265       O266   2.445       .  S
Zr265       O273   2.384       .  S
Zr265       O274   2.387       .  S
Zr265       O275   2.415       .  S
Zr265       O276   2.402       .  S
Zr265       O267   2.464       .  S
Zr265       O268   2.435       .  S
Zr265       O271   2.412       .  S
O266        H322   0.991       .  S
O266        H330   0.991       .  S
O267        C287   1.286       .  A
O268        C289   1.280       .  A
O269       Zr279   2.431       .  S
O269        C288   1.284       .  A
O270       Zr278   2.465       .  S
O270        C289   1.293       .  A
O271        C288   1.278       .  A
O272      Zr1468   2.391   1_545  S
O272       C1475   1.275   1_545  A
O273       Zr278   2.408       .  S
O273       Zr280   2.396       .  S
O274       Zr279   2.392       .  S
O274       Zr280   2.379       .  S
O274        H309   0.966       .  S
O275       Zr278   2.400       .  S
O275       Zr295   2.373       .  S
O275        H312   0.963       .  S
O276       Zr279   2.381       .  S
O276       Zr295   2.381       .  S
Zr277       O302   2.445       .  S
Zr277       O283   2.404       .  S
Zr277       O284   2.414       .  S
Zr277       O285   2.379       .  S
Zr277       O286   2.385       .  S
Zr277       O296   2.449       .  S
Zr277       O304   2.427       .  S
Zr277       O292   2.441       .  S
Zr278       O297   2.434       .  S
Zr278       O884   2.433       .  S
Zr278       O284   2.403       .  S
Zr278       O285   2.405       .  S
Zr278       O885   2.471       .  S
Zr279       O281   2.435       .  S
Zr279       O303   2.438       .  S
Zr279       O283   2.391       .  S
Zr279       O286   2.398       .  S
Zr279       O305   2.420       .  S
Zr280       O306   2.437       .  S
Zr280       O901   2.437       .  S
Zr280       O876   2.438       .  S
Zr280       O283   2.384       .  S
Zr280       O284   2.375       .  S
Zr280       O866   2.386       .  S
O281        H318   0.990       .  S
O282      Zr1468   2.438   1_545  S
O282        H313   0.991       .  S
O282        H327   0.990       .  S
O284        H904   0.964       .  S
O285       Zr295   2.388       .  S
O286       Zr295   2.374       .  S
O286        H311   0.966       .  S
C287        C736   1.467       .  S
C287        O866   1.274       .  A
O290      Zr1466   2.434   1_545  S
O290        H326   0.990       .  S
O291      Zr1466   2.475       .  S
O291        C293   1.292       .  A
O292        C887   1.283       .  A
C293       O1480   1.283       .  A
O294       Zr295   2.440       .  S
O294        H323   0.990       .  S
Zr295       O298   2.438       .  S
Zr295       O299   2.441       .  S
Zr295       O300   2.391       .  S
O296        C301   1.284       .  A
O297        H314   0.990       .  S
O297        H329   0.990       .  S
O298        H315   0.990       .  S
O299        H319   0.990       .  S
O299        H328   0.990       .  S
O300        C301   1.275       .  A
O302        H321   0.991       .  S
O302        H919   0.991       .  S
O303        H317   0.989       .  S
O303        H324   0.990       .  S
O304        C308   1.284       .  A
O305        C308   1.283       .  A
O306        H910   0.990       .  S
O307      Zr1468   2.436   1_545  S
O307        H320   0.990       .  S
H310       O1472   0.964   1_545  S
H316       O1494   0.990       .  S
H325       O1490   0.991       .  S
C331        C332   1.405       .  A
C331        C336   1.405       .  A
C331        C386   1.472       .  S
C332        C333   1.405       .  A
C332        H337   1.084       .  S
C333        C334   1.399       .  A
C333        C565   1.459       .  S
C334        C335   1.394       .  A
C334        H338   1.085       .  S
C335        C336   1.402       .  A
C335        C358   1.469       .  S
C336        H339   1.085       .  S
C340        C341   1.406       .  A
C340        C345   1.402       .  A
C340        C557   1.474       .  S
C341        C342   1.395       .  A
C341       H2128   1.084       .  S
C342        C343   1.399       .  A
C342        C387   1.453       .  S
C343        C344   1.394       .  A
C343        H347   1.085       .  S
C344        C345   1.406       .  A
C344        C362   1.461       .  S
C345        H348   1.084       .  S
H346       C2123   1.084       .  S
C349        C350   1.417       .  A
C349       C1542   1.390   1_545  A
C349        C388   1.475       .  S
C350        C351   1.411       .  A
C350        H355   1.083       .  S
C351       C1540   1.400       .  A
C351        C572   1.471       .  S
C352        C353   1.392       .  A
C352        C945   1.400       .  A
C352        H356   1.085       .  S
C353        C354   1.392       .  A
C353        C360   1.447       .  S
C354        C943   1.390       .  A
C354        H357   1.085       .  S
C358        N359   1.359       .  A
C358        N363   1.368       .  A
N359        C360   1.351       .  A
C360        N361   1.344       .  A
N361        C362   1.342       .  A
C362        N363   1.362       .  A
Zr364       O365   2.446       .  S
Zr364       O372   2.377   1_545  S
Zr364       O373   2.387       .  S
Zr364       O374   2.420       .  S
Zr364       O375   2.405       .  S
Zr364       O366   2.460   1_545  S
Zr364       O367   2.428       .  S
Zr364       O370   2.407       .  S
O365        H421   0.990       .  S
O365        H429   0.991       .  S
O366       C3356   1.285   1_455  A
O367        C388   1.280       .  A
O368       Zr378   2.444       .  S
O368        C387   1.286       .  A
O369       Zr377   2.455       .  S
O369        C982   1.292       .  A
O370        C387   1.277       .  A
O371       Zr379   2.389       .  S
O371        C386   1.274       .  A
O372      Zr1565   2.407       .  S
O372      Zr3349   2.392   1_455  S
O373       Zr378   2.406       .  S
O373      Zr3349   2.376   1_445  S
O373        H408   0.967   1_455  S
O374       Zr394   2.372       .  S
O374      Zr1565   2.395   1_545  S
O374        H411   0.962       .  S
O375       Zr378   2.380       .  S
O375       Zr394   2.382       .  S
Zr376      O1589   2.445       .  S
Zr376       O382   2.399       .  S
Zr376       O384   2.377       .  S
Zr376       O385   2.387       .  S
Zr376      O1571   2.420   1_545  S
Zr376       O395   2.474       .  S
Zr376       O403   2.426       .  S
Zr376      O1579   2.429   1_545  S
Zr377       O389   2.435       .  S
Zr377       O990   2.435       .  S
Zr377       O383   2.401       .  S
Zr377       O966   2.405       .  S
Zr377       O968   2.393       .  S
Zr377       O978   2.404       .  S
Zr377       O390   2.450       .  S
Zr378       O380   2.437       .  S
Zr378      O2184   2.436   1_455  S
Zr378       O382   2.372       .  S
Zr378       O385   2.403       .  S
Zr378       O404   2.456       .  S
Zr379       O405   2.434       .  S
Zr379       O406   2.436       .  S
Zr379       O381   2.437       .  S
Zr379      O2748   2.391       .  S
Zr379      O2749   2.376       .  S
Zr379      O2758   2.376       .  S
Zr379      O2165   2.370       .  S
O380        H417   0.990       .  S
O381        H412   0.990       .  S
O381        H426   0.990       .  S
O382      Zr3349   2.375   1_445  S
O383       Zr970   2.421       .  S
O383      Zr2161   2.373   1_455  S
O383        H409   0.962       .  S
O384       Zr394   2.390       .  S
O384      Zr1565   2.404   1_545  S
O385       Zr394   2.383       .  S
O385        H410   0.965       .  S
C386       O2742   1.286       .  A
C388       O1557   1.292   1_545  A
O389        H425   0.990       .  S
O390        C392   1.288       .  A
O391       Zr970   2.425       .  S
O391        C392   1.281       .  A
O393       Zr394   2.440       .  S
O393        H422   0.990       .  S
Zr394       O397   2.439       .  S
Zr394       O398   2.441       .  S
Zr394       O399   2.395       .  S
O395        C400   1.289       .  A
O396      Zr1565   2.434   1_545  S
O396        H428   0.990       .  S
O396       H1601   0.990   1_545  S
O397        H414   0.990       .  S
O398        H418   0.990       .  S
O398        H427   0.990       .  S
O399        C400   1.274       .  A
O401       Zr970   2.445       .  S
O401        H424   0.990       .  S
O401       H2202   0.991       .  S
O402      Zr2160   2.437       .  S
O402        H416   0.990       .  S
O402        H423   0.990       .  S
O403        C407   1.281   1_455  A
O404        C407   1.292   1_455  A
O405        H415   0.990       .  S
O406        H419   0.990       .  S
C407       C2032   1.474       .  S
H413        O990   0.990       .  S
H420       O2183   0.991       .  S
C430        C431   1.408       .  A
C430        C435   1.406       .  A
C430        C499   1.479       .  S
C431        C432   1.405       .  A
C431        H436   1.084       .  S
C432       C1027   1.398       .  A
C432       C2833   1.478       .  S
C433        C434   1.402       .  A
C433       C1620   1.396       .  A
C433       H2219   1.085       .  S
C434       C1623   1.406       .  A
C434        C551   1.463       .  S
C435       C1028   1.407       .  A
C435        H438   1.084       .  S
H437       C2215   1.085   1_455  S
C439        C440   1.406       .  A
C439        C444   1.403       .  A
C439        C552   1.475       .  S
C440        C441   1.393       .  A
C440        H445   1.084       .  S
C441        C442   1.409       .  A
C441        C491   1.463       .  S
C442        C443   1.403       .  A
C442        H446   1.084       .  S
C443        C444   1.407       .  A
C443        C461   1.474       .  S
C444        H447   1.084       .  S
C448        C449   1.395       .  A
C448        C453   1.410       .  A
C448        C506   1.468       .  S
C449        C450   1.392       .  A
C449        H454   1.085       .  S
C450        C451   1.397       .  A
C450        C459   1.460       .  S
C451        C452   1.407       .  A
C451        H455   1.085       .  S
C452        C453   1.404       .  A
C452        C553   1.467       .  S
C453        H456   1.084       .  S
C457       C3402   1.479   1_455  S
C457        N462   1.371       .  A
C457       N1646   1.361   1_545  A
N458        C459   1.354       .  A
N458       C1051   1.361       .  A
C459       N1054   1.350       .  A
N460        C461   1.348       .  A
N460       C1647   1.349   1_545  A
C461        N462   1.365       .  A
Zr463       O464   2.446       .  S
Zr463       O471   2.378       .  S
Zr463       O472   2.382       .  S
Zr463       O473   2.420       .  S
Zr463       O474   2.406       .  S
Zr463       O465   2.472       .  S
Zr463       O466   2.424       .  S
Zr463       O469   2.405       .  S
O464        H520   0.990       .  S
O464        H528   0.991       .  S
O465        C485   1.288       .  A
O466        C487   1.279       .  A
O467       Zr477   2.438       .  S
O467        C486   1.285       .  A
O468       Zr476   2.474       .  S
O468        C487   1.296       .  A
O469        C486   1.277       .  A
O470       Zr478   2.387       .  S
O470        C485   1.273       .  A
O471       Zr476   2.406       .  S
O471       Zr478   2.391       .  S
O472       Zr477   2.401       .  S
O472       Zr478   2.377       .  S
O472        H507   0.966       .  S
O473       Zr476   2.397       .  S
O473       Zr493   2.373       .  S
O473        H510   0.962       .  S
O474       Zr477   2.379       .  S
O474       Zr493   2.386       .  S
Zr475       O500   2.445       .  S
Zr475       O481   2.395       .  S
Zr475       O482   2.420       .  S
Zr475       O483   2.382       .  S
Zr475       O484   2.383       .  S
Zr475       O494   2.473       .  S
Zr475       O502   2.432       .  S
Zr475       O490   2.427       .  S
Zr476       O495   2.436       .  S
Zr476       O488   2.434       .  S
Zr476       O482   2.406       .  S
Zr476       O483   2.413       .  S
Zr476       O489   2.462       .  S
Zr477       O479   2.439       .  S
Zr477       O501   2.435       .  S
Zr477       O481   2.372       .  S
Zr477       O484   2.403       .  S
Zr477       O503   2.436       .  S
Zr478       O504   2.434       .  S
Zr478       O505   2.436       .  S
Zr478       O480   2.438       .  S
Zr478       O481   2.372       .  S
Zr478       O482   2.369       .  S
O479       H1110   0.990       .  S
O480        H511   0.990       .  S
O480        H525   0.990       .  S
O482        H508   0.962       .  S
O483       Zr493   2.389       .  S
O484       Zr493   2.380       .  S
O484        H509   0.965       .  S
O488        H524   0.990       .  S
O489        C491   1.290       .  A
O490        C491   1.280       .  A
O492       Zr493   2.440       .  S
O492       H1115   0.990       .  S
Zr493       O496   2.438       .  S
Zr493      O1091   2.441       .  S
Zr493       O498   2.401       .  S
O494        C499   1.288       .  A
O495        H512   0.990       .  S
O495        H527   0.990       .  S
O496        H513   0.990       .  S
O497      Zr1681   2.441   1_545  S
O497        H517   0.990       .  S
O497        H526   0.990       .  S
O498        C499   1.276       .  A
O500        H519   0.991       .  S
O500        H523   0.990       .  S
O501        H515   0.990       .  S
O501        H522   0.990       .  S
O502        C506   1.282       .  A
O503        C506   1.287       .  A
O504        H514   0.990       .  S
O505        H518   0.990       .  S
H516       O1667   0.990       .  S
H521       O1680   0.990   1_545  S
Zr529       O530   2.443       .  S
Zr529       O537   2.376       .  S
Zr529       O538   2.383       .  S
Zr529       O539   2.410       .  S
Zr529       O540   2.403       .  S
Zr529       O531   2.446       .  S
Zr529       O535   2.418       .  S
Zr529      O2314   2.443       .  S
O530        H586   0.990       .  S
O530        H594   0.991       .  S
O531        C551   1.283       .  A
O532      Zr2311   2.440       .  S
O532        C553   1.283   1_655  A
O533       Zr543   2.433       .  S
O533        C552   1.285       .  A
O534      Zr2324   2.451       .  S
O534        C553   1.287       .  A
O535        C552   1.282       .  A
O536       Zr544   2.397       .  S
O536        C551   1.276       .  A
O537       Zr542   2.402       .  S
O537       Zr544   2.387       .  S
O538       Zr543   2.402       .  S
O538       Zr544   2.376       .  S
O538        H573   0.967       .  S
O539       Zr542   2.399       .  S
O539       Zr559   2.370       .  S
O539        H576   0.963       .  S
O540       Zr543   2.393       .  S
O540       Zr559   2.391       .  S
Zr541       O566   2.443       .  S
Zr541       O547   2.398       .  S
Zr541       O548   2.412       .  S
Zr541       O549   2.381       .  S
Zr541       O550   2.384       .  S
Zr541       O560   2.445       .  S
Zr541       O568   2.444       .  S
Zr541       O556   2.429       .  S
Zr542      O2343   2.437       .  S
Zr542      O2336   2.436       .  S
Zr542       O548   2.405       .  S
Zr542       O549   2.400       .  S
Zr542      O2316   2.447       .  S
Zr542      O2337   2.438       .  S
Zr543       O545   2.434       .  S
Zr543       O567   2.436       .  S
Zr543       O547   2.391       .  S
Zr543       O550   2.396       .  S
Zr543       O569   2.440       .  S
Zr544       O570   2.439       .  S
Zr544       O571   2.436       .  S
Zr544       O546   2.436       .  S
Zr544       O547   2.384       .  S
Zr544       O548   2.384       .  S
O545        H582   0.990       .  S
O546        H577   0.990       .  S
O546       H2373   0.990       .  S
O548        H574   0.964       .  S
O549       Zr559   2.383       .  S
O550       Zr559   2.382       .  S
O550        H575   0.966       .  S
O554      Zr2324   2.436       .  S
O554        H590   0.990       .  S
O555      Zr2324   2.440       .  S
O555        C557   1.287       .  A
O556       C2339   1.284       .  A
C557       O2338   1.283   1_455  A
O558       Zr559   2.441       .  S
O558        H587   0.990       .  S
Zr559       O562   2.440       .  S
Zr559       O563   2.437       .  S
Zr559       O564   2.395       .  S
O560        C565   1.284       .  A
O561      Zr2324   2.436       .  S
O561        H578   0.990       .  S
O561        H593   0.990       .  S
O562        H579   0.990       .  S
O563        H583   0.990       .  S
O563        H592   0.990       .  S
O564        C565   1.276       .  A
O566        H585   0.990       .  S
O566        H589   0.991       .  S
O567        H581   0.990       .  S
O567        H588   0.990       .  S
O568        C572   1.285       .  A
O569        C572   1.284       .  A
O570       H1768   0.990   1_545  S
O571        H584   0.990       .  S
H580       O1164   0.990       .  S
H591       O2328   0.990   1_455  S
C595        C596   1.407       .  A
C595        C600   1.405       .  A
C595       C1079   1.472       .  S
C596       C2379   1.404   1_455  A
C596        H601   1.084       .  S
C597       C2378   1.405       .  A
C597        C598   1.394       .  A
C597        C622   1.474       .  S
C598       C2381   1.400       .  A
C598        H602   1.085       .  S
C599       C2380   1.400   1_455  A
C599        C600   1.404       .  A
C599        C683   1.460       .  S
C600        H603   1.084       .  S
C604        C605   1.391       .  A
C604        C609   1.422       .  A
C604       C1081   1.481       .  S
C605        C606   1.394       .  A
C605        H610   1.085       .  S
C606        C607   1.389       .  A
C606        C624   1.445       .  S
C607        C608   1.397       .  A
C607        H611   1.085       .  S
C608        C609   1.415       .  A
C608        C684   1.472       .  S
C609        H612   1.083       .  S
C613        C618   1.403       .  A
C613        C685   1.475       .  S
C614       C1207   1.405       .  A
C614        C615   1.398       .  A
C614        H619   1.084       .  S
C615       C1210   1.400       .  A
C615       C1080   1.452       .  S
C616        C617   1.393       .  A
C616        H620   1.085       .  S
C617        C618   1.405       .  A
C617        C626   1.462       .  S
C618        H621   1.084       .  S
C622        N623   1.360       .  A
C622        N627   1.370       .  A
N623        C624   1.352       .  A
C624        N625   1.341       .  A
N625        C626   1.341       .  A
C626        N627   1.363       .  A
C628       C1223   1.418       .  A
C628        C633   1.393       .  A
C628        C704   1.474       .  S
C629        C630   1.415       .  A
C629        H634   1.083       .  S
C630        C796   1.489       .  S
C631       C1224   1.408       .  A
C631        C632   1.402       .  A
C631        H635   1.084       .  S
C632        C633   1.388       .  A
C632        C648   1.462       .  S
C633        H636   1.085       .  S
C637        C638   1.408       .  A
C637        C642   1.395       .  A
C637        C689   1.457       .  S
C638        C639   1.404       .  A
C638        H643   1.084       .  S
C639        C640   1.402       .  A
C639        C650   1.478       .  S
C640        C641   1.405       .  A
C640        H644   1.085       .  S
C641        C642   1.395       .  A
C641        C788   1.454       .  S
C642        H645   1.084       .  S
C646        C656   1.463       .  S
C646        N647   1.353       .  A
C646        N651   1.362       .  A
N647        C648   1.352       .  A
C648        N649   1.361       .  A
N649        C650   1.358       .  A
C650        N651   1.359       .  A
C652        C653   1.402       .  A
C652        C657   1.408       .  A
C652        C697   1.474       .  S
C653        C654   1.406       .  A
C653        H658   1.084       .  S
C654        C655   1.396       .  A
C654        C803   1.462       .  S
C655        C656   1.392       .  A
C655        H659   1.085       .  S
C656        C657   1.404       .  A
C657        H660   1.084       .  S
Zr661       O662   2.444       .  S
Zr661      O1263   2.378       .  S
Zr661      O1264   2.385       .  S
Zr661       O671   2.411       .  S
Zr661       O672   2.403       .  S
Zr661      O1257   2.445       .  S
Zr661      O1258   2.439       .  S
Zr661      O2449   2.430   1_455  S
O662        H718   0.990       .  S
O662        H726   0.991       .  S
O663        C683   1.283       .  A
O664        C685   1.283       .  A
O665       Zr675   2.453   1_554  S
O665        C684   1.287       .  A
O666       Zr674   2.427   1_554  S
O666        C685   1.284       .  A
O667      Zr2443   2.431       .  S
O667        C684   1.283       .  A
O668       Zr676   2.392       .  S
O668        C683   1.275       .  A
O669       Zr674   2.400   1_554  S
O669       Zr676   2.380       .  S
O670      Zr1863   2.400   1_454  S
O670       Zr676   2.377       .  S
O670       H2487   0.966   1_455  S
O671      Zr1268   2.403   1_554  S
O671       Zr691   2.382   1_554  S
O671        H708   0.965       .  S
O672      Zr2457   2.385   1_454  S
O672       Zr691   2.388   1_554  S
Zr673       O698   2.445       .  S
Zr673       O679   2.398       .  S
Zr673       O680   2.417       .  S
Zr673       O688   2.434       .  S
Zr674       O693   2.434       .  S
Zr674       O686   2.433   1_556  S
Zr674       O680   2.398       .  S
Zr674       O687   2.434       .  S
Zr675       O677   2.437       .  S
Zr675       O699   2.437   1_556  S
Zr675      O3046   2.401   1_556  S
Zr675      O2454   2.386   1_556  S
Zr675      O3055   2.377       .  S
Zr675      O2464   2.404       .  S
Zr675       O701   2.449       .  S
Zr676      O2484   2.436   1_455  S
Zr676       O703   2.436   1_554  S
Zr676       O678   2.437       .  S
Zr676       O679   2.377   1_554  S
Zr676       O680   2.380   1_554  S
O677        H714   0.990       .  S
O678        H709   0.990       .  S
O678        H723   0.990       .  S
O679      Zr1863   2.378   1_455  S
O680        H706   0.963       .  S
O681      Zr1267   2.374       .  S
O681      Zr1268   2.393       .  S
O681       Zr691   2.386       .  S
O682      Zr1267   2.390       .  S
O682      Zr2457   2.404   1_455  S
O682       Zr691   2.391       .  S
O682        H707   0.966   1_455  S
O686        H722   0.990   1_554  S
O687        C689   1.283       .  A
O688        C689   1.282       .  A
O690       Zr691   2.441   1_554  S
O690        H719   0.990       .  S
Zr691       O694   2.438   1_556  S
Zr691       O695   2.444       .  S
Zr691       O696   2.399       .  S
O692      Zr1267   2.467       .  S
O692        C697   1.288       .  A
O693        H710   0.990       .  S
O694        H711   0.990   1_554  S
O695        H715   0.990       .  S
O695       H2506   0.989   1_455  S
O696        C697   1.276       .  A
O698        H717   0.991       .  S
O698        H721   0.990       .  S
O699        H713   0.990       .  S
O699        H720   0.990       .  S
O700      Zr1267   2.434   1_655  S
O700       C2486   1.282       .  A
O701        C704   1.291       .  A
O702      Zr2458   2.433       .  S
O702       H2494   0.990   1_554  S
O703        H716   0.990       .  S
C704       O2482   1.282       .  A
H705       O2452   0.966       .  S
H712       O2484   0.990   1_556  S
H724       O2477   0.989       .  S
H725       O1287   0.990   1_554  S
C727        C728   1.391       .  A
C727        C732   1.424       .  A
C727        C883   1.482       .  S
C728        C729   1.391       .  A
C728       H1327   1.085       .  S
C729        C730   1.395       .  A
C729       C3134   1.455       .  S
C730        C731   1.401       .  A
C730        H734   1.085       .  S
C731        C732   1.419       .  A
C731        C782   1.484       .  S
C732        H735   1.083       .  S
C736        C737   1.402       .  A
C736        C741   1.403       .  A
C737        C738   1.409       .  A
C737        H742   1.084       .  S
C738        C739   1.394       .  A
C738        C784   1.460       .  S
C739        C740   1.393       .  A
C739        H743   1.085       .  S
C740        C741   1.398       .  A
C740        C754   1.457       .  S
H744       C1335   1.085       .  S
C745        C746   1.397       .  A
C745        C750   1.398       .  A
C745        C882   1.449       .  S
C746        C747   1.396       .  A
C746        H751   1.084       .  S
C747        C748   1.398       .  A
C747        C783   1.451       .  S
C748        C749   1.398       .  A
C748       H2534   1.085       .  S
C749        C750   1.396       .  A
C749        C756   1.456       .  S
C750        H753   1.085       .  S
H752       C2530   1.085       .  S
C754        N755   1.357       .  A
C754        N759   1.355       .  A
N755        C756   1.353       .  A
C756        N757   1.350       .  A
N757        C758   1.354       .  A
C758       C1917   1.455   1_455  S
C758        N759   1.354       .  A
Zr760       O761   2.443       .  S
Zr760       O768   2.374       .  S
Zr760       O769   2.384       .  S
Zr760       O770   2.420       .  S
Zr760       O771   2.405       .  S
Zr760       O762   2.471       .  S
Zr760       O763   2.427       .  S
Zr760       O766   2.421       .  S
O761        H817   0.990       .  S
O761        H825   0.991       .  S
O762        C782   1.287       .  A
O763        C784   1.281       .  A
O764       Zr774   2.422       .  S
O764        C783   1.283       .  A
O765       Zr773   2.425       .  S
O765        C784   1.284       .  A
O766       C2565   1.280       .  A
O767       Zr775   2.415       .  S
O767        C782   1.280       .  A
O768       Zr773   2.401       .  S
O768       Zr775   2.381       .  S
O769      Zr2556   2.400       .  S
O769       Zr775   2.378       .  S
O769        H804   0.966       .  S
O770       Zr773   2.402       .  S
O770       Zr790   2.386       .  S
O770        H807   0.964       .  S
O771      Zr2556   2.384       .  S
O771       Zr790   2.387       .  S
Zr772       O797   2.442       .  S
Zr772       O778   2.409       .  S
Zr772       O779   2.419       .  S
Zr772       O780   2.373       .  S
Zr772       O781   2.378       .  S
Zr772       O791   2.484       .  S
Zr772      O2581   2.419       .  S
Zr772       O787   2.432       .  S
Zr773       O792   2.436       .  S
Zr773       O785   2.437       .  S
Zr773       O779   2.397       .  S
Zr773       O780   2.402       .  S
Zr773       O786   2.427       .  S
Zr774       O776   2.435       .  S
Zr774       O798   2.436       .  S
Zr774      O2551   2.400   1_455  S
Zr774      O2553   2.382   1_455  S
Zr774      O2560   2.383   1_455  S
Zr774      O2563   2.399   1_455  S
Zr774       O800   2.423       .  S
Zr775       O801   2.437       .  S
Zr775       O802   2.435       .  S
Zr775       O777   2.435       .  S
Zr775       O778   2.395       .  S
Zr775       O779   2.382       .  S
O776        H813   0.990       .  S
O777        H808   0.990       .  S
O777        H822   0.990       .  S
O778      Zr2556   2.381       .  S
O779        H805   0.964       .  S
O780       Zr790   2.384       .  S
O781      Zr2556   2.402       .  S
O781       Zr790   2.377       .  S
O781        H806   0.965       .  S
C783       O2548   1.279   1_455  A
O785        H821   0.990       .  S
O786        C788   1.283       .  A
O787        C788   1.281       .  A
O789       Zr790   2.438       .  S
Zr790       O793   2.440       .  S
Zr790       O794   2.441       .  S
Zr790       O795   2.411       .  S
O791        C796   1.291       .  A
O792        H809   0.990       .  S
O792        H824   0.990       .  S
O794        H814   0.990       .  S
O794        H823   0.990       .  S
O795        C796   1.278       .  A
O797        H816   0.991       .  S
O797        H820   0.990       .  S
O798        H812   0.990       .  S
O798        H819   0.990       .  S
O799      Zr2554   2.417       .  S
O799        C803   1.280   1_655  A
O800        C803   1.283       .  A
O801        H811   0.990       .  S
O802        H815   0.990       .  S
H810       O1387   0.990       .  S
H818       O1383   0.990       .  S
C826        C827   1.410       .  A
C826        C831   1.404       .  A
C826        C994   1.476       .  S
C827        C828   1.407       .  A
C827        H832   1.084       .  S
C828        C829   1.396       .  A
C828        C853   1.477       .  S
C829        C830   1.401       .  A
C829        H833   1.085       .  S
C830        C831   1.404       .  A
C830        C895   1.461       .  S
C831        H834   1.084       .  S
C835        C836   1.403       .  A
C835        C840   1.403       .  A
C835        C902   1.473       .  S
C836        C837   1.394       .  A
C836        H841   1.084       .  S
C837        C838   1.409       .  A
C837        C986   1.459       .  S
C838        C839   1.402       .  A
C838        H842   1.084       .  S
C839        C840   1.405       .  A
C839       C2637   1.476   1_455  S
C840        H843   1.084       .  S
C844       C2627   1.391       .  A
C844        C849   1.417       .  A
C844       C2783   1.475       .  S
C845       C2626   1.392       .  A
C845       C2628   1.391       .  A
C845        H850   1.085       .  S
C846       C2627   1.391       .  A
C846        C847   1.400       .  A
C846        C857   1.459       .  S
C847        C848   1.408       .  A
C847        H851   1.084       .  S
C848        C849   1.410       .  A
C848        C887   1.478       .  S
H852       C1443   1.083       .  S
C853        N854   1.370       .  A
C853        N858   1.362       .  A
N854        C855   1.364       .  A
C855       C2621   1.476       .  S
C855        N856   1.348       .  A
N856        C857   1.349       .  A
C857        N858   1.355       .  A
Zr859       O860   2.448       .  S
Zr859       O867   2.385       .  S
Zr859       O868   2.387       .  S
Zr859       O869   2.416       .  S
Zr859       O870   2.405       .  S
Zr859       O861   2.462       .  S
Zr859       O862   2.436       .  S
Zr859       O865   2.409       .  S
O860        H916   0.991       .  S
O860        H924   0.990       .  S
O861        C881   1.286       .  A
O862        C883   1.281       .  A
O863       Zr873   2.429       .  S
O863        C882   1.283       .  A
O864       Zr872   2.473       .  S
O864        C883   1.295       .  A
O865        C882   1.278       .  A
O867       Zr872   2.410       .  S
O867       Zr874   2.393       .  S
O868       Zr873   2.397       .  S
O868       Zr874   2.380       .  S
O868        H903   0.966       .  S
O869       Zr872   2.399       .  S
O869       Zr889   2.366       .  S
O869        H906   0.963       .  S
O870       Zr873   2.383       .  S
O870       Zr889   2.385       .  S
Zr871       O896   2.446       .  S
Zr871       O877   2.400       .  S
Zr871       O878   2.413       .  S
Zr871       O879   2.380       .  S
Zr871       O880   2.384       .  S
Zr871       O890   2.450       .  S
Zr871       O898   2.423       .  S
Zr871       O886   2.439       .  S
Zr872       O891   2.435       .  S
Zr872      O1478   2.435       .  S
Zr872       O878   2.407       .  S
Zr872       O879   2.403       .  S
Zr872      O1479   2.473       .  S
Zr873       O875   2.436       .  S
Zr873       O897   2.436       .  S
Zr873       O877   2.391       .  S
Zr873       O880   2.396       .  S
Zr873       O899   2.425       .  S
Zr874       O900   2.435       .  S
Zr874      O1495   2.436       .  S
Zr874      O1470   2.438       .  S
Zr874       O877   2.387       .  S
Zr874       O878   2.371       .  S
Zr874      O1460   2.389       .  S
O875        H912   0.990       .  S
O876        H907   0.991       .  S
O876        H921   0.990       .  S
O878       H1498   0.964       .  S
O879       Zr889   2.385       .  S
O880       Zr889   2.376       .  S
O880        H905   0.966       .  S
C881       C1330   1.466       .  S
C881       O1460   1.274       .  A
O884        H920   0.990       .  S
O885        C887   1.291       .  A
O886       C1481   1.283       .  A
O888       Zr889   2.439       .  S
O888        H917   0.990       .  S
Zr889       O892   2.437       .  S
Zr889       O893   2.438       .  S
Zr889       O894   2.387       .  S
O890        C895   1.284       .  A
O891        H908   0.990       .  S
O891        H923   0.990       .  S
O892        H909   0.990       .  S
O893        H913   0.990       .  S
O893        H922   0.990       .  S
O894        C895   1.274       .  A
O896        H915   0.991       .  S
O896       H1513   0.990       .  S
O897        H911   0.990       .  S
O897        H918   0.990       .  S
O898        C902   1.282       .  A
O899        C902   1.283       .  A
O900       H1504   0.990       .  S
O901        H914   0.990       .  S
C925        C926   1.405       .  A
C925        C930   1.406       .  A
C925        C980   1.473       .  S
C926        C927   1.405       .  A
C926        H931   1.084       .  S
C927        C928   1.399       .  A
C927       C1159   1.458       .  S
C928        C929   1.394       .  A
C928        H932   1.085       .  S
C929        C930   1.403       .  A
C929        C952   1.471       .  S
C930        H933   1.084       .  S
C934        C935   1.407       .  A
C934        C939   1.403       .  A
C934       C1151   1.476       .  S
C935        C936   1.397       .  A
C935       H2722   1.084       .  S
C936        C937   1.400       .  A
C936        C981   1.454       .  S
C937        C938   1.395       .  A
C937        H941   1.085       .  S
C938        C939   1.406       .  A
C938        C956   1.463       .  S
C939        H942   1.084       .  S
H940       C2717   1.084       .  S
C943        C944   1.416       .  A
C943        C982   1.474       .  S
C944        C945   1.410       .  A
C944        H949   1.083       .  S
C945       C1166   1.469       .  S
C946       C1539   1.400       .  A
C946        C947   1.391       .  A
C946        H950   1.085       .  S
C947        C948   1.395       .  A
C947        C954   1.449       .  S
C948       C1537   1.391       .  A
C948        H951   1.085       .  S
C952        N953   1.360       .  A
C952        N957   1.368       .  A
N953        C954   1.353       .  A
C954        N955   1.344       .  A
N955        C956   1.342       .  A
C956        N957   1.362       .  A
Zr958       O959   2.445       .  S
Zr958       O966   2.375       .  S
Zr958       O967   2.388       .  S
Zr958       O968   2.421       .  S
Zr958       O969   2.404       .  S
Zr958       O960   2.464       .  S
Zr958       O961   2.428       .  S
Zr958       O964   2.405       .  S
O959       H1015   0.990       .  S
O959       H1023   0.991       .  S
O960       C2168   1.286   1_455  A
O961        C982   1.280       .  A
O962       Zr972   2.450       .  S
O962        C981   1.288       .  A
O963       Zr971   2.468       .  S
O963       C1576   1.294       .  A
O964        C981   1.277       .  A
O965       Zr973   2.390       .  S
O965        C980   1.274       .  A
O966      Zr2161   2.391   1_455  S
O967       Zr972   2.405       .  S
O967      Zr2161   2.377   1_455  S
O967       H1002   0.967   1_455  S
O968       Zr988   2.370       .  S
O968       H1005   0.962       .  S
O969       Zr972   2.379       .  S
O969       Zr988   2.380       .  S
Zr970       O976   2.399       .  S
Zr970       O978   2.375       .  S
Zr970       O979   2.386       .  S
Zr970       O989   2.476       .  S
Zr970       O997   2.420       .  S
Zr971      O1584   2.436       .  S
Zr971       O983   2.435       .  S
Zr971      O1560   2.408       .  S
Zr971      O1562   2.393       .  S
Zr971       O977   2.406       .  S
Zr971      O1572   2.405       .  S
Zr971       O984   2.456       .  S
Zr972       O974   2.437       .  S
Zr972      O2778   2.437   1_455  S
Zr972       O976   2.369       .  S
Zr972       O979   2.403       .  S
Zr972       O998   2.457       .  S
Zr973       O999   2.436       .  S
Zr973      O1000   2.437       .  S
Zr973       O975   2.438       .  S
Zr973      O3342   2.393       .  S
Zr973      O3343   2.376       .  S
Zr973      O3352   2.373       .  S
Zr973      O2759   2.371       .  S
O974       H1011   0.990       .  S
O975       H1006   0.990       .  S
O975       H1020   0.990       .  S
O976      Zr2161   2.372   1_455  S
O977      Zr1564   2.426       .  S
O977      Zr2755   2.376   1_455  S
O977       H1003   0.962       .  S
O978       Zr988   2.391       .  S
O979       Zr988   2.381       .  S
O979       H1004   0.965       .  S
C980       O3336   1.287       .  A
O983       H1019   0.990       .  S
O984        C986   1.289       .  A
O985      Zr1564   2.422       .  S
O985        C986   1.280       .  A
O987       Zr988   2.440       .  S
O987       H1016   0.990       .  S
Zr988       O991   2.438       .  S
Zr988       O992   2.441       .  S
Zr988       O993   2.389       .  S
O989        C994   1.289       .  A
O990       H1022   0.990       .  S
O991       H1008   0.990       .  S
O992       H1012   0.990       .  S
O992       H1021   0.990       .  S
O993        C994   1.273       .  A
O995      Zr1564   2.445       .  S
O995       H2796   0.991       .  S
O995       H1018   0.990       .  S
O996      Zr2754   2.436       .  S
O996       H1010   0.990       .  S
O996       H1017   0.990       .  S
O997       C1001   1.280   1_455  A
O998       C1001   1.292   1_455  A
O999       H1009   0.991       .  S
O1000      H1013   0.990       .  S
C1001      C2626   1.472       .  S
H1007      O1584   0.990       .  S
H1014      O2777   0.991       .  S
C1024      C1025   1.408       .  A
C1024      C1029   1.406       .  A
C1024      C1093   1.478       .  S
C1025      C1026   1.406       .  A
C1025      H1030   1.084       .  S
C1026      C1621   1.399       .  A
C1026      C3427   1.478       .  S
C1027      C1028   1.404       .  A
C1027      H2813   1.085       .  S
C1028      C1145   1.467       .  S
C1029      C1622   1.407       .  A
C1029      H1032   1.084       .  S
H1031      C2809   1.085   1_455  S
C1033      C1034   1.404       .  A
C1033      C1038   1.403       .  A
C1033      C1146   1.472       .  S
C1034      C1035   1.391       .  A
C1034      H1039   1.084       .  S
C1035      C1036   1.409       .  A
C1035      C1085   1.462       .  S
C1036      C1037   1.404       .  A
C1036      H1040   1.084       .  S
C1037      C1038   1.406       .  A
C1037      C1055   1.474       .  S
C1038      H1041   1.084       .  S
C1042      C1043   1.392       .  A
C1042      C1047   1.410       .  A
C1042      C1100   1.465       .  S
C1043      C1044   1.391       .  A
C1043      H1048   1.085       .  S
C1044      C1045   1.398       .  A
C1044      C1053   1.460       .  S
C1045      C1046   1.407       .  A
C1045      H1049   1.084       .  S
C1046      C1047   1.404       .  A
C1046      C1147   1.466       .  S
C1047      H1050   1.084       .  S
C1051      C2214   1.477   1_455  S
C1051      N1056   1.370       .  A
N1052      C1645   1.361       .  A
N1052      C1053   1.354       .  A
C1053      N1648   1.349       .  A
N1054      C1055   1.349       .  A
C1055      N1056   1.364       .  A
Zr1057     O1058   2.446       .  S
Zr1057     O1065   2.376       .  S
Zr1057     O1066   2.382       .  S
Zr1057     O1067   2.422       .  S
Zr1057     O1068   2.405       .  S
Zr1057     O1059   2.470       .  S
Zr1057     O1060   2.426       .  S
Zr1057     O1063   2.410       .  S
O1058      H1114   0.990       .  S
O1058      H1122   0.991       .  S
O1059      C1079   1.287       .  A
O1060      C1081   1.280       .  A
O1061     Zr1071   2.440       .  S
O1061      C1080   1.286       .  A
O1062     Zr1070   2.476       .  S
O1062      C1081   1.296       .  A
O1063      C1080   1.278       .  A
O1064     Zr1072   2.385       .  S
O1064      C1079   1.273       .  A
O1065     Zr1070   2.408       .  S
O1065     Zr1072   2.390       .  S
O1066     Zr1071   2.401       .  S
O1066     Zr1072   2.377       .  S
O1066      H1101   0.966       .  S
O1067     Zr1070   2.398       .  S
O1067     Zr1087   2.376       .  S
O1067      H1104   0.962       .  S
O1068     Zr1071   2.378       .  S
O1068     Zr1087   2.382       .  S
Zr1069     O1094   2.446       .  S
Zr1069     O1075   2.399       .  S
Zr1069     O1076   2.418       .  S
Zr1069     O1077   2.380       .  S
Zr1069     O1078   2.382       .  S
Zr1069     O1088   2.472       .  S
Zr1069     O1096   2.419       .  S
Zr1069     O1084   2.421       .  S
Zr1070     O1089   2.436       .  S
Zr1070     O1082   2.436       .  S
Zr1070     O1076   2.403       .  S
Zr1070     O1077   2.411       .  S
Zr1070     O1083   2.466       .  S
Zr1071     O1073   2.437       .  S
Zr1071     O1095   2.438       .  S
Zr1071     O1075   2.374       .  S
Zr1071     O1078   2.402       .  S
Zr1071     O1097   2.438       .  S
Zr1072     O1098   2.434       .  S
Zr1072     O1099   2.435       .  S
Zr1072     O1074   2.439       .  S
Zr1072     O1075   2.377       .  S
Zr1072     O1076   2.364       .  S
O1073      H1704   0.990       .  S
O1074      H1105   0.990       .  S
O1074      H1119   0.990       .  S
O1076      H1102   0.962       .  S
O1077     Zr1087   2.392       .  S
O1078     Zr1087   2.379       .  S
O1078      H1103   0.966       .  S
O1082      H1118   0.990       .  S
O1083      C1085   1.291       .  A
O1084      C1085   1.279       .  A
O1086     Zr1087   2.440       .  S
O1086      H1709   0.990       .  S
Zr1087     O1090   2.436       .  S
Zr1087     O1685   2.442       .  S
Zr1087     O1092   2.398       .  S
O1088      C1093   1.288       .  A
O1089      H1106   0.990       .  S
O1089      H1121   0.990       .  S
O1090      H1107   0.990       .  S
O1091      H1111   0.990       .  S
O1091      H1120   0.990       .  S
O1092      C1093   1.275       .  A
O1094      H1113   0.992       .  S
O1094      H1117   0.990       .  S
O1095      H1109   0.990       .  S
O1095      H1116   0.990       .  S
O1096      C1100   1.279       .  A
O1097      C1100   1.288       .  A
O1098      H1108   0.990       .  S
O1099      H1112   0.990       .  S
Zr1123     O1124   2.442       .  S
Zr1123     O1131   2.375       .  S
Zr1123     O1132   2.381       .  S
Zr1123     O1133   2.412       .  S
Zr1123     O1134   2.402       .  S
Zr1123     O1125   2.450       .  S
Zr1123     O2908   2.438       .  S
Zr1123     O1129   2.414       .  S
O1124      H1180   0.990       .  S
O1124      H1188   0.991       .  S
O1125      C1145   1.283       .  A
O1126     Zr2905   2.442       .  S
O1126      C1147   1.283   1_655  A
O1127     Zr1137   2.431       .  S
O1127      C1146   1.284       .  A
O1128     Zr2918   2.448       .  S
O1128      C1147   1.286       .  A
O1129      C1146   1.281       .  A
O1130     Zr1138   2.399       .  S
O1130      C1145   1.276       .  A
O1131     Zr1136   2.400       .  S
O1131     Zr1138   2.386       .  S
O1132     Zr1137   2.403       .  S
O1132     Zr1138   2.376       .  S
O1132      H1167   0.967       .  S
O1133     Zr1136   2.400       .  S
O1133     Zr1153   2.373       .  S
O1133      H1170   0.963       .  S
O1134     Zr1137   2.390       .  S
O1134     Zr1153   2.390       .  S
Zr1135     O1160   2.444       .  S
Zr1135     O1141   2.397       .  S
Zr1135     O1142   2.413       .  S
Zr1135     O1143   2.379       .  S
Zr1135     O1144   2.384       .  S
Zr1135     O1154   2.439       .  S
Zr1135     O1162   2.438       .  S
Zr1135     O1150   2.420       .  S
Zr1136     O2937   2.436       .  S
Zr1136     O2930   2.437       .  S
Zr1136     O1142   2.406       .  S
Zr1136     O1143   2.400       .  S
Zr1136     O2910   2.452       .  S
Zr1136     O2931   2.443       .  S
Zr1137     O1139   2.436       .  S
Zr1137     O1161   2.435       .  S
Zr1137     O1141   2.391       .  S
Zr1137     O1144   2.395       .  S
Zr1137     O1163   2.441       .  S
Zr1138     O1164   2.437       .  S
Zr1138     O1165   2.435       .  S
Zr1138     O1140   2.437       .  S
Zr1138     O1141   2.385       .  S
Zr1138     O1142   2.384       .  S
O1139      H1176   0.990       .  S
O1140      H1171   0.991       .  S
O1140      H2967   0.990       .  S
O1142      H1168   0.964       .  S
O1143     Zr1153   2.382       .  S
O1144     Zr1153   2.379       .  S
O1144      H1169   0.966       .  S
O1148     Zr2918   2.435       .  S
O1148      H1184   0.990       .  S
O1149     Zr2918   2.442       .  S
O1149      C1151   1.287       .  A
O1150      C2933   1.282       .  A
C1151      O2932   1.283   1_455  A
O1152     Zr1153   2.441       .  S
O1152      H1181   0.990       .  S
Zr1153     O1156   2.439       .  S
Zr1153     O1157   2.437       .  S
Zr1153     O1158   2.398       .  S
O1154      C1159   1.282       .  A
O1155     Zr2918   2.437       .  S
O1155      H1172   0.990       .  S
O1155      H1187   0.990       .  S
O1156      H1173   0.990       .  S
O1157      H1177   0.990       .  S
O1157      H1186   0.990       .  S
O1158      C1159   1.277       .  A
O1160      H1179   0.990       .  S
O1160      H1183   0.991       .  S
O1161      H1175   0.990       .  S
O1161      H1182   0.990       .  S
O1162      C1166   1.284       .  A
O1163      C1166   1.284       .  A
O1165      H1178   0.990       .  S
H1174      O1758   0.990       .  S
H1185      O2922   0.990   1_455  S
C1189      C1190   1.408       .  A
C1189      C1194   1.404       .  A
C1189      C1673   1.473       .  S
C1190      C2973   1.405   1_455  A
C1190      H1195   1.084       .  S
C1191      C2972   1.404       .  A
C1191      C1192   1.395       .  A
C1191      C1216   1.473       .  S
C1192      C2975   1.400       .  A
C1192      H1196   1.085       .  S
C1193      C2974   1.400   1_455  A
C1193      C1194   1.404       .  A
C1193      C1277   1.460       .  S
C1194      H1197   1.084       .  S
C1198      C1199   1.390       .  A
C1198      C1203   1.421       .  A
C1198      C1675   1.479       .  S
C1199      C1200   1.393       .  A
C1199      H1204   1.085       .  S
C1200      C1201   1.391       .  A
C1200      C1218   1.446       .  S
C1201      C1202   1.399       .  A
C1201      H1205   1.085       .  S
C1202      C1203   1.415       .  A
C1202      C1278   1.474       .  S
C1203      H1206   1.083       .  S
C1207      C1212   1.403       .  A
C1207      C1279   1.476       .  S
C1208      C1209   1.397       .  A
C1208      H1213   1.084   1_545  S
C1209      C1674   1.451   1_545  S
C1210      C1211   1.393       .  A
C1210      H1214   1.085       .  S
C1211      C1212   1.405       .  A
C1211      C1220   1.463       .  S
C1212      H1215   1.084       .  S
C1216      N1217   1.360       .  A
C1216      N1221   1.370       .  A
N1217      C1218   1.352       .  A
C1218      N1219   1.342       .  A
N1219      C1220   1.342       .  A
C1220      N1221   1.363       .  A
C1222      C1227   1.394       .  A
C1222      C1298   1.475       .  S
C1223      C1224   1.415       .  A
C1223      H1228   1.083       .  S
C1224      C1390   1.488       .  S
C1225      C1226   1.404       .  A
C1225      H1229   1.084       .  S
C1226      C1227   1.390       .  A
C1226      C1242   1.466       .  S
C1227      H1230   1.085       .  S
C1231      C1232   1.407       .  A
C1231      C1236   1.394       .  A
C1231      C1283   1.456       .  S
C1232      C1233   1.403       .  A
C1232      H1237   1.084       .  S
C1233      C1234   1.400       .  A
C1233      C1244   1.478       .  S
C1234      C1235   1.404       .  A
C1234      H1238   1.085       .  S
C1235      C1236   1.394       .  A
C1235      C1382   1.451       .  S
C1236      H1239   1.084       .  S
C1240      C1250   1.463       .  S
C1240      N1241   1.354       .  A
C1240      N1245   1.361       .  A
N1241      C1242   1.353       .  A
C1242      N1243   1.362       .  A
N1243      C1244   1.359       .  A
C1244      N1245   1.358       .  A
C1246      C1247   1.402       .  A
C1246      C1251   1.408       .  A
C1246      C1291   1.474       .  S
C1247      C1248   1.406       .  A
C1247      H1252   1.084       .  S
C1248      C1249   1.396       .  A
C1248      C1397   1.462       .  S
C1249      C1250   1.392       .  A
C1249      H1253   1.085       .  S
C1250      C1251   1.404       .  A
C1251      H1254   1.084       .  S
Zr1255     O1256   2.444       .  S
Zr1255     O1265   2.412       .  S
Zr1255     O1266   2.404       .  S
Zr1255     O3043   2.425   1_455  S
O1256      H1312   0.990   1_565  S
O1256      H1320   0.991       .  S
O1257      C1277   1.283       .  A
O1258      C1279   1.284       .  A
O1259     Zr1269   2.457   1_554  S
O1259      C1278   1.289       .  A
O1260     Zr1268   2.428   1_554  S
O1260      C1279   1.285       .  A
O1261     Zr3037   2.431       .  S
O1261      C1278   1.283       .  A
O1262     Zr1270   2.392       .  S
O1262      C1277   1.276       .  A
O1263     Zr1268   2.399   1_554  S
O1263     Zr1270   2.378       .  S
O1264     Zr2457   2.400   1_454  S
O1264     Zr1270   2.380       .  S
O1264      H3081   0.966   1_455  S
O1265     Zr1285   2.381   1_554  S
O1265      H1302   0.965       .  S
O1266     Zr3051   2.387   1_454  S
O1266     Zr1285   2.388   1_554  S
Zr1267     O1292   2.446       .  S
Zr1267     O1273   2.398       .  S
Zr1267     O1274   2.417       .  S
Zr1267     O1282   2.427       .  S
Zr1268     O1287   2.435       .  S
Zr1268     O1280   2.434   1_556  S
Zr1268     O1274   2.398       .  S
Zr1268     O1281   2.440       .  S
Zr1269     O1271   2.437       .  S
Zr1269     O1293   2.438   1_556  S
Zr1269     O1858   2.401   1_566  S
Zr1269     O3048   2.387   1_556  S
Zr1269     O1867   2.375   1_565  S
Zr1269     O3058   2.402       .  S
Zr1269     O1295   2.454       .  S
Zr1270     O3078   2.433   1_454  S
Zr1270     O1297   2.435   1_554  S
Zr1270     O1272   2.438       .  S
Zr1270     O1273   2.377   1_554  S
Zr1270     O1274   2.376   1_554  S
O1271      H1308   0.990       .  S
O1272      H1303   0.990       .  S
O1272      H1317   0.990       .  S
O1273     Zr2457   2.378   1_455  S
O1274      H1300   0.963       .  S
O1275     Zr1285   2.386       .  S
O1276     Zr3051   2.405   1_455  S
O1276     Zr1285   2.391       .  S
O1276      H1301   0.966   1_455  S
O1280      H1316   0.990   1_554  S
O1281      C1283   1.285       .  A
O1282      C1283   1.280       .  A
O1284     Zr1285   2.439   1_554  S
O1284      H1313   0.990       .  S
Zr1285     O1288   2.438   1_556  S
Zr1285     O1289   2.444       .  S
Zr1285     O1290   2.399       .  S
O1286      C1291   1.288       .  A
O1287      H1304   0.990       .  S
O1288      H1305   0.990   1_554  S
O1289      H1309   0.990       .  S
O1289      H3100   0.989   1_455  S
O1290      C1291   1.276       .  A
O1292      H1311   0.991       .  S
O1292      H1315   0.990       .  S
O1293      H1307   0.990       .  S
O1293      H1314   0.990       .  S
O1294      C3080   1.281       .  A
O1295      C1298   1.291       .  A
O1296     Zr3052   2.433       .  S
O1296      H3088   0.990   1_554  S
O1297      H1310   0.990       .  S
C1298      O3076   1.281   1_565  A
H1299      O3046   0.966       .  S
H1306      O3078   0.990       .  S
H1318      O3071   0.989       .  S
C1321      C1322   1.391       .  A
C1321      C1326   1.423       .  A
C1321      C1477   1.479       .  S
C1322      C1323   1.391       .  A
C1323      C1324   1.396       .  A
C1323      C1946   1.456   1_565  S
C1324      C1325   1.402       .  A
C1324      H1328   1.085       .  S
C1325      C1326   1.417       .  A
C1325      C1376   1.484       .  S
C1326      H1329   1.083       .  S
C1330      C1331   1.400       .  A
C1330      C1335   1.402       .  A
C1331      C1332   1.407       .  A
C1331      H1336   1.084       .  S
C1332      C1333   1.393       .  A
C1332      C1378   1.455       .  S
C1333      C1334   1.391       .  A
C1333      H1337   1.085       .  S
C1334      C1335   1.399       .  A
C1334      C1348   1.456       .  S
C1339      C1340   1.399       .  A
C1339      C1344   1.400       .  A
C1339      C1476   1.453       .  S
C1340      C1341   1.398       .  A
C1340      H1345   1.084       .  S
C1341      C1342   1.399       .  A
C1341      C1377   1.455       .  S
C1342      C1343   1.398       .  A
C1342      H3128   1.085       .  S
C1343      C1344   1.398       .  A
C1343      C1350   1.459       .  S
C1344      H1347   1.085       .  S
H1346      C3124   1.085       .  S
C1348      N1349   1.359       .  A
C1348      N1353   1.354       .  A
N1349      C1350   1.354       .  A
C1350      N1351   1.350       .  A
N1351      C1352   1.354       .  A
C1352      C2511   1.453   1_455  S
C1352      N1353   1.352       .  A
Zr1354     O1355   2.445       .  S
Zr1354     O1362   2.376       .  S
Zr1354     O1363   2.384       .  S
Zr1354     O1364   2.421       .  S
Zr1354     O1365   2.408       .  S
Zr1354     O1356   2.470       .  S
Zr1354     O1357   2.419       .  S
Zr1354     O1360   2.414       .  S
O1355      H1411   0.990       .  S
O1355      H1419   0.991       .  S
O1356      C1376   1.287       .  A
O1357      C1378   1.279       .  A
O1358     Zr1368   2.431       .  S
O1358      C1377   1.284       .  A
O1359     Zr1367   2.415       .  S
O1359      C1378   1.282       .  A
O1360      C3159   1.279       .  A
O1361     Zr1369   2.420       .  S
O1361      C1376   1.280       .  A
O1362     Zr1367   2.401       .  S
O1362     Zr1369   2.381       .  S
O1363     Zr3150   2.402       .  S
O1363     Zr1369   2.377       .  S
O1363      H1398   0.966       .  S
O1364     Zr1367   2.398       .  S
O1364     Zr1384   2.385       .  S
O1364      H1401   0.964       .  S
O1365     Zr3150   2.380       .  S
O1365     Zr1384   2.388       .  S
Zr1366     O1391   2.444       .  S
Zr1366     O1372   2.412       .  S
Zr1366     O1373   2.420       .  S
Zr1366     O1374   2.372       .  S
Zr1366     O1375   2.379       .  S
Zr1366     O1385   2.480       .  S
Zr1366     O3175   2.411       .  S
Zr1366     O1381   2.431       .  S
Zr1367     O1386   2.436       .  S
Zr1367     O1379   2.434       .  S
Zr1367     O1373   2.397       .  S
Zr1367     O1374   2.399       .  S
Zr1367     O1380   2.418       .  S
Zr1368     O1370   2.438       .  S
Zr1368     O1392   2.437       .  S
Zr1368     O3145   2.402   1_455  S
Zr1368     O3147   2.382   1_455  S
Zr1368     O3154   2.385   1_455  S
Zr1368     O3157   2.400   1_455  S
Zr1368     O1394   2.424       .  S
Zr1369     O1395   2.436       .  S
Zr1369     O1396   2.436       .  S
Zr1369     O1371   2.437       .  S
Zr1369     O1372   2.398       .  S
Zr1369     O1373   2.386       .  S
O1370      H1407   0.990       .  S
O1371      H1402   0.990       .  S
O1371      H1416   0.990       .  S
O1372     Zr3150   2.385       .  S
O1373      H1399   0.964       .  S
O1374     Zr1384   2.383       .  S
O1375     Zr3150   2.400       .  S
O1375     Zr1384   2.377       .  S
O1375      H1400   0.965       .  S
C1377      O3142   1.279   1_455  A
O1379      H1415   0.990       .  S
O1380      C1382   1.281       .  A
O1381      C1382   1.281       .  A
O1383     Zr1384   2.438       .  S
Zr1384     O1387   2.438       .  S
Zr1384     O1388   2.441       .  S
Zr1384     O1389   2.412       .  S
O1385      C1390   1.290       .  A
O1386      H1403   0.990       .  S
O1386      H1418   0.990       .  S
O1388      H1408   0.990       .  S
O1388      H1417   0.990       .  S
O1389      C1390   1.279       .  A
O1391      H1410   0.991       .  S
O1391      H1414   0.990       .  S
O1392      H1406   0.990       .  S
O1392      H1413   0.990       .  S
O1393     Zr3148   2.415       .  S
O1393      C1397   1.279   1_655  A
O1394      C1397   1.283       .  A
O1395      H1405   0.990       .  S
O1396      H1409   0.990       .  S
C1420      C1421   1.412       .  A
C1420      C1425   1.404       .  A
C1420      C1588   1.481       .  S
C1421      C1422   1.409       .  A
C1421      H1426   1.084       .  S
C1422      C1423   1.394       .  A
C1422      C1447   1.477       .  S
C1423      C1424   1.400       .  A
C1423      H1427   1.085       .  S
C1424      C1425   1.404       .  A
C1424      C1489   1.458       .  S
C1425      H1428   1.084       .  S
C1429      C1430   1.403       .  A
C1429      C1434   1.405       .  A
C1429      C1496   1.473       .  S
C1430      C1431   1.394       .  A
C1430      H1435   1.084       .  S
C1431      C1432   1.410       .  A
C1431      C1580   1.461       .  S
C1432      C1433   1.403       .  A
C1432      H1436   1.084       .  S
C1433      C1434   1.405       .  A
C1433      C3231   1.479   1_455  S
C1434      H1437   1.084       .  S
C1438      C3221   1.392       .  A
C1438      C1443   1.415       .  A
C1438      C3377   1.475       .  S
C1439      C3220   1.394       .  A
C1439      C3222   1.392       .  A
C1439      H1444   1.085       .  S
C1440      C3221   1.392       .  A
C1440      C1441   1.399       .  A
C1440      C1451   1.459       .  S
C1441      C1442   1.408       .  A
C1441      H1445   1.084       .  S
C1442      C1443   1.410       .  A
C1442      C1481   1.477       .  S
C1447      N1448   1.371       .  A
C1447      N1452   1.361       .  A
N1448      C1449   1.364       .  A
C1449      C3215   1.476       .  S
C1449      N1450   1.348       .  A
N1450      C1451   1.349       .  A
C1451      N1452   1.354       .  A
Zr1453     O1454   2.445       .  S
Zr1453     O1461   2.385       .  S
Zr1453     O1462   2.384       .  S
Zr1453     O1463   2.416       .  S
Zr1453     O1464   2.400       .  S
Zr1453     O1455   2.460       .  S
Zr1453     O1456   2.433       .  S
Zr1453     O1459   2.418       .  S
O1454      H1510   0.991       .  S
O1454      H1518   0.991       .  S
O1455      C1475   1.286       .  A
O1456      C1477   1.281       .  A
O1457     Zr1467   2.430       .  S
O1457      C1476   1.283       .  A
O1458     Zr1466   2.464       .  S
O1458      C1477   1.294       .  A
O1459      C1476   1.280       .  A
O1461     Zr1466   2.409       .  S
O1461     Zr1468   2.391       .  S
O1462     Zr1467   2.393       .  S
O1462     Zr1468   2.379       .  S
O1462      H1497   0.966       .  S
O1463     Zr1466   2.401       .  S
O1463     Zr1483   2.369       .  S
O1463      H1500   0.963       .  S
O1464     Zr1467   2.382       .  S
O1464     Zr1483   2.379       .  S
Zr1465     O1490   2.447       .  S
Zr1465     O1471   2.400       .  S
Zr1465     O1472   2.413       .  S
Zr1465     O1473   2.380       .  S
Zr1465     O1474   2.385       .  S
Zr1465     O1484   2.447       .  S
Zr1465     O1492   2.426       .  S
Zr1465     O1480   2.442       .  S
Zr1466     O1485   2.434       .  S
Zr1466     O1472   2.403       .  S
Zr1466     O1473   2.401       .  S
Zr1467     O1469   2.435       .  S
Zr1467     O1491   2.437       .  S
Zr1467     O1471   2.389       .  S
Zr1467     O1474   2.396       .  S
Zr1467     O1493   2.422       .  S
Zr1468     O1494   2.435       .  S
Zr1468     O1471   2.384       .  S
Zr1468     O1472   2.372       .  S
O1469      H1506   0.990       .  S
O1470      H1501   0.991       .  S
O1470      H1515   0.990       .  S
O1473     Zr1483   2.389       .  S
O1474     Zr1483   2.376       .  S
O1474      H1499   0.966       .  S
O1478      H1514   0.990       .  S
O1479      C1481   1.292       .  A
O1482     Zr1483   2.440       .  S
O1482      H1511   0.990       .  S
Zr1483     O1486   2.438       .  S
Zr1483     O1487   2.439       .  S
Zr1483     O1488   2.384       .  S
O1484      C1489   1.284       .  A
O1485      H1502   0.990       .  S
O1485      H1517   0.990       .  S
O1486      H1503   0.990       .  S
O1487      H1507   0.990       .  S
O1487      H1516   0.990       .  S
O1488      C1489   1.274       .  A
O1490      H1509   0.991       .  S
O1491      H1505   0.990       .  S
O1491      H1512   0.990       .  S
O1492      C1496   1.283       .  A
O1493      C1496   1.283       .  A
O1495      H1508   0.990       .  S
C1519      C1520   1.404       .  A
C1519      C1524   1.406       .  A
C1519      C1574   1.471       .  S
C1520      C1521   1.404       .  A
C1520      H1525   1.084       .  S
C1521      C1522   1.399       .  A
C1521      C1753   1.457       .  S
C1522      C1523   1.393       .  A
C1522      H1526   1.085       .  S
C1523      C1524   1.404       .  A
C1523      C1546   1.470       .  S
C1524      H1527   1.084       .  S
C1528      C1529   1.407       .  A
C1528      C1533   1.403       .  A
C1528      C1745   1.477       .  S
C1529      C1530   1.397       .  A
C1529      H3316   1.084       .  S
C1530      C1531   1.400       .  A
C1530      C1575   1.454       .  S
C1531      C1532   1.395       .  A
C1531      H1535   1.085       .  S
C1532      C1533   1.407       .  A
C1532      C1550   1.463       .  S
C1533      H1536   1.084       .  S
H1534      C3311   1.084       .  S
C1537      C1538   1.418       .  A
C1537      C1576   1.479       .  S
C1538      C1539   1.412       .  A
C1538      H1543   1.083       .  S
C1539      C1760   1.471       .  S
C1540      C1541   1.392   1_545  A
C1540      H1544   1.085       .  S
C1541      C1542   1.393       .  A
C1541      C1548   1.448       .  S
C1542      H1545   1.085       .  S
C1546      N1547   1.359       .  A
C1546      N1551   1.369       .  A
N1547      C1548   1.352       .  A
C1548      N1549   1.344       .  A
N1549      C1550   1.342       .  A
C1550      N1551   1.362       .  A
Zr1552     O1553   2.445       .  S
Zr1552     O1560   2.377       .  S
Zr1552     O1561   2.388       .  S
Zr1552     O1562   2.421       .  S
Zr1552     O1563   2.404       .  S
Zr1552     O1554   2.465       .  S
Zr1552     O1555   2.428       .  S
Zr1552     O1558   2.406       .  S
O1553      H1609   0.990       .  S
O1553      H1617   0.991       .  S
O1554      C2762   1.286   1_455  A
O1555      C1576   1.280       .  A
O1556     Zr1566   2.445       .  S
O1556      C1575   1.286       .  A
O1557     Zr1565   2.457       .  S
O1558      C1575   1.277       .  A
O1559     Zr1567   2.389       .  S
O1559      C1574   1.274       .  A
O1560     Zr2755   2.392   1_455  S
O1561     Zr1566   2.408       .  S
O1561     Zr2755   2.377   1_455  S
O1561      H1596   0.967   1_455  S
O1562     Zr1582   2.373       .  S
O1562      H1599   0.962       .  S
O1563     Zr1566   2.380       .  S
O1563     Zr1582   2.382       .  S
Zr1564     O1570   2.399       .  S
Zr1564     O1572   2.378       .  S
Zr1564     O1573   2.384       .  S
Zr1564     O1583   2.484       .  S
Zr1564     O1591   2.427       .  S
Zr1565     O1577   2.433       .  S
Zr1565     O1571   2.401       .  S
Zr1565     O1578   2.452       .  S
Zr1566     O1568   2.437       .  S
Zr1566     O3372   2.436   1_455  S
Zr1566     O1570   2.369       .  S
Zr1566     O1573   2.403       .  S
Zr1566     O1592   2.455       .  S
Zr1567     O1593   2.438       .  S
Zr1567     O1594   2.436       .  S
Zr1567     O1569   2.439       .  S
Zr1567     O2154   2.390       .  S
Zr1567     O2155   2.377   1_565  S
Zr1567     O2164   2.375   1_565  S
Zr1567     O3353   2.371       .  S
O1568      H1605   0.990       .  S
O1569      H1600   0.990       .  S
O1569      H1614   0.990       .  S
O1570     Zr2755   2.374   1_455  S
O1571     Zr3349   2.371   1_455  S
O1571      H1597   0.962       .  S
O1572     Zr1582   2.389       .  S
O1573     Zr1582   2.383       .  S
O1573      H1598   0.965       .  S
C1574      O2148   1.287       .  A
O1577      H1613   0.990       .  S
O1578      C1580   1.288       .  A
O1579      C1580   1.281       .  A
O1581     Zr1582   2.437       .  S
O1581      H1610   0.990       .  S
Zr1582     O1585   2.439       .  S
Zr1582     O1586   2.440       .  S
Zr1582     O1587   2.392       .  S
O1583      C1588   1.290       .  A
O1584      H1616   0.990       .  S
O1585      H1602   0.990       .  S
O1586      H1606   0.990       .  S
O1586      H1615   0.990       .  S
O1587      C1588   1.273       .  A
O1589      H3390   0.991       .  S
O1589      H1612   0.990       .  S
O1590     Zr3348   2.437       .  S
O1590      H1604   0.989       .  S
O1590      H1611   0.990       .  S
O1591      C1595   1.281   1_455  A
O1592      C1595   1.291   1_455  A
O1593      H1603   0.990       .  S
O1594      H1607   0.990       .  S
C1595      C3220   1.473       .  S
H1608      O3371   0.991       .  S
C1618      C1619   1.409       .  A
C1618      C1623   1.406   1_565  A
C1618      C1687   1.481       .  S
C1619      C1620   1.407   1_565  A
C1619      H1624   1.084       .  S
C1620      C2239   1.477       .  S
C1621      C1622   1.404       .  A
C1621      H3407   1.085       .  S
C1622      C1739   1.467       .  S
C1623      H1626   1.084       .  S
H1625      C3403   1.085   1_455  S
C1627      C1628   1.402       .  A
C1627      C1632   1.402       .  A
C1627      C1740   1.471       .  S
C1628      C1629   1.390       .  A
C1628      H1633   1.084       .  S
C1629      C1630   1.409       .  A
C1629      C1679   1.459       .  S
C1630      C1631   1.403       .  A
C1630      H1634   1.084       .  S
C1631      C1632   1.406       .  A
C1631      C1649   1.474       .  S
C1632      H1635   1.084       .  S
C1636      C1637   1.394       .  A
C1636      C1641   1.410       .  A
C1636      C1694   1.467       .  S
C1637      C1638   1.393       .  A
C1637      H1642   1.085       .  S
C1638      C1639   1.399       .  A
C1638      C1647   1.461       .  S
C1639      C1640   1.408       .  A
C1639      H1643   1.084       .  S
C1640      C1641   1.404       .  A
C1640      C1741   1.469       .  S
C1641      H1644   1.084       .  S
C1645      C2808   1.476   1_455  S
C1645      N1650   1.370       .  A
N1646      C1647   1.354       .  A
N1648      C1649   1.348       .  A
C1649      N1650   1.364       .  A
Zr1651     O1652   2.446       .  S
Zr1651     O1659   2.377       .  S
Zr1651     O1660   2.383       .  S
Zr1651     O1661   2.422       .  S
Zr1651     O1662   2.402       .  S
Zr1651     O1653   2.472       .  S
Zr1651     O1654   2.425       .  S
Zr1651     O1657   2.409       .  S
O1652      H1708   0.990       .  S
O1652      H1716   0.991       .  S
O1653      C1673   1.288       .  A
O1654      C1675   1.279       .  A
O1655     Zr1665   2.438       .  S
O1655      C1674   1.285       .  A
O1656     Zr1664   2.472       .  S
O1656      C1675   1.295       .  A
O1657      C1674   1.278       .  A
O1658     Zr1666   2.385       .  S
O1658      C1673   1.273       .  A
O1659     Zr1664   2.405       .  S
O1659     Zr1666   2.393       .  S
O1660     Zr1665   2.402       .  S
O1660     Zr1666   2.377       .  S
O1660      H1695   0.966       .  S
O1661     Zr1664   2.396       .  S
O1661     Zr1681   2.375       .  S
O1661      H1698   0.962       .  S
O1662     Zr1665   2.377       .  S
O1662     Zr1681   2.382       .  S
Zr1663     O1688   2.446       .  S
Zr1663     O1669   2.398       .  S
Zr1663     O1670   2.420       .  S
Zr1663     O1671   2.381       .  S
Zr1663     O1672   2.378       .  S
Zr1663     O1682   2.476       .  S
Zr1663     O1690   2.424       .  S
Zr1663     O1678   2.420       .  S
Zr1664     O1683   2.435       .  S
Zr1664     O1676   2.435       .  S
Zr1664     O1670   2.404       .  S
Zr1664     O1671   2.412       .  S
Zr1664     O1677   2.460       .  S
Zr1665     O1667   2.435   1_565  S
Zr1665     O1689   2.437       .  S
Zr1665     O1669   2.373       .  S
Zr1665     O1672   2.400       .  S
Zr1665     O1691   2.437       .  S
Zr1666     O1692   2.435       .  S
Zr1666     O1693   2.436       .  S
Zr1666     O1668   2.440       .  S
Zr1666     O1669   2.375       .  S
Zr1666     O1670   2.365       .  S
O1668      H1699   0.990       .  S
O1668      H1713   0.990       .  S
O1670      H1696   0.962       .  S
O1671     Zr1681   2.391       .  S
O1672     Zr1681   2.378       .  S
O1672      H1697   0.965       .  S
O1676      H1712   0.990       .  S
O1677      C1679   1.289       .  A
O1678      C1679   1.279       .  A
O1680     Zr1681   2.439       .  S
Zr1681     O1684   2.438       .  S
Zr1681     O1686   2.400       .  S
O1682      C1687   1.289       .  A
O1683      H1700   0.990       .  S
O1683      H1715   0.990       .  S
O1684      H1701   0.990       .  S
O1685      H1705   0.990       .  S
O1685      H1714   0.990       .  S
O1686      C1687   1.276       .  A
O1688      H1707   0.992       .  S
O1688      H1711   0.990       .  S
O1689      H1703   0.990       .  S
O1689      H1710   0.990       .  S
O1690      C1694   1.281       .  A
O1691      C1694   1.288       .  A
O1692      H1702   0.990       .  S
O1693      H1706   0.990       .  S
Zr1717     O1718   2.444       .  S
Zr1717     O1725   2.377       .  S
Zr1717     O1726   2.384       .  S
Zr1717     O1727   2.411       .  S
Zr1717     O1728   2.404       .  S
Zr1717     O1719   2.452       .  S
Zr1717     O3502   2.440       .  S
Zr1717     O1723   2.413       .  S
O1718      H1774   0.990       .  S
O1718      H1782   0.991       .  S
O1719      C1739   1.284       .  A
O1720     Zr3499   2.448       .  S
O1720      C1741   1.284   1_655  A
O1721     Zr1731   2.429       .  S
O1721      C1740   1.284       .  A
O1722     Zr3512   2.451       .  S
O1722      C1741   1.286       .  A
O1723      C1740   1.281       .  A
O1724     Zr1732   2.401       .  S
O1724      C1739   1.277       .  A
O1725     Zr1730   2.403       .  S
O1725     Zr1732   2.390       .  S
O1726     Zr1731   2.402       .  S
O1726     Zr1732   2.375       .  S
O1726      H1761   0.967       .  S
O1727     Zr1730   2.400       .  S
O1727     Zr1747   2.370       .  S
O1727      H1764   0.963       .  S
O1728     Zr1731   2.391       .  S
O1728     Zr1747   2.390       .  S
Zr1729     O1754   2.443       .  S
Zr1729     O1735   2.398       .  S
Zr1729     O1736   2.413       .  S
Zr1729     O1737   2.378       .  S
Zr1729     O1738   2.385       .  S
Zr1729     O1748   2.441       .  S
Zr1729     O1756   2.441       .  S
Zr1729     O1744   2.423       .  S
Zr1730     O3531   2.436       .  S
Zr1730     O3524   2.436       .  S
Zr1730     O1736   2.404       .  S
Zr1730     O1737   2.400       .  S
Zr1730     O3504   2.452       .  S
Zr1730     O3525   2.444       .  S
Zr1731     O1733   2.435       .  S
Zr1731     O1755   2.436       .  S
Zr1731     O1735   2.389       .  S
Zr1731     O1738   2.397       .  S
Zr1731     O1757   2.442       .  S
Zr1732     O1758   2.437       .  S
Zr1732     O1759   2.434       .  S
Zr1732     O1734   2.436       .  S
Zr1732     O1735   2.383       .  S
Zr1732     O1736   2.384       .  S
O1733      H1770   0.990       .  S
O1734      H1765   0.990       .  S
O1734      H3561   0.990       .  S
O1736      H1762   0.964       .  S
O1737     Zr1747   2.382       .  S
O1738     Zr1747   2.381       .  S
O1738      H1763   0.966       .  S
O1742     Zr3512   2.436       .  S
O1742      H1778   0.990       .  S
O1743     Zr3512   2.443       .  S
O1743      C1745   1.287       .  A
O1744      C3527   1.282       .  A
C1745      O3526   1.283   1_455  A
O1746     Zr1747   2.440       .  S
O1746      H1775   0.990       .  S
Zr1747     O1750   2.439       .  S
Zr1747     O1751   2.437       .  S
Zr1747     O1752   2.393       .  S
O1748      C1753   1.282       .  A
O1749     Zr3512   2.436       .  S
O1749      H1766   0.990       .  S
O1749      H1781   0.990       .  S
O1750      H1767   0.990       .  S
O1751      H1771   0.990       .  S
O1751      H1780   0.990       .  S
O1752      C1753   1.276       .  A
O1754      H1773   0.990       .  S
O1754      H1777   0.991       .  S
O1755      H1769   0.990       .  S
O1755      H1776   0.990       .  S
O1756      C1760   1.284       .  A
O1757      C1760   1.284       .  A
O1759      H1772   0.990       .  S
H1779      O3516   0.990   1_455  S
C1783      C1784   1.406       .  A
C1783      C1788   1.404       .  A
C1783      C2267   1.471       .  S
C1784      H1789   1.084       .  S
C1785      C1786   1.393       .  A
C1785      C1810   1.472       .  S
C1786      H1790   1.085       .  S
C1787      C1788   1.405       .  A
C1787      C1871   1.459       .  S
C1788      H1791   1.084       .  S
C1792      C1793   1.391       .  A
C1792      C1797   1.423       .  A
C1792      C2269   1.483       .  S
C1793      C1794   1.393       .  A
C1793      H1798   1.085       .  S
C1794      C1795   1.391       .  A
C1794      C1812   1.446       .  S
C1795      C1796   1.399       .  A
C1795      H1799   1.085       .  S
C1796      C1797   1.417       .  A
C1796      C1872   1.477       .  S
C1797      H1800   1.083       .  S
C1801      C2990   1.405       .  A
C1801      C1806   1.404       .  A
C1801      C1873   1.477       .  S
C1802      C2395   1.405       .  A
C1802      C1803   1.397       .  A
C1802      H1807   1.084       .  S
C1803      C2398   1.401       .  A
C1803      C2268   1.453       .  S
C1804      C2991   1.401       .  A
C1804      C1805   1.394       .  A
C1804      H1808   1.085       .  S
C1805      C1806   1.405       .  A
C1805      C1814   1.464       .  S
C1806      H1809   1.084       .  S
C1810      N1811   1.359       .  A
C1810      N1815   1.370       .  A
N1811      C1812   1.352       .  A
C1812      N1813   1.343       .  A
N1813      C1814   1.342       .  A
C1814      N1815   1.363       .  A
C1816      C2411   1.418       .  A
C1816      C1821   1.394       .  A
C1816      C1892   1.476       .  S
C1817      C3004   1.418   1_545  A
C1817      C1818   1.414       .  A
C1817      H1822   1.083       .  S
C1818      C3007   1.409   1_545  A
C1818      C1984   1.487       .  S
C1819      C2412   1.409       .  A
C1819      C1820   1.403       .  A
C1819      H1823   1.084       .  S
C1820      C1821   1.389       .  A
C1820      C1836   1.465       .  S
C1821      H1824   1.085       .  S
C1825      C1826   1.408       .  A
C1825      C1830   1.395       .  A
C1825      C1877   1.457       .  S
C1826      C1827   1.404       .  A
C1826      H1831   1.084       .  S
C1827      C1828   1.402       .  A
C1827      C1838   1.479       .  S
C1828      C1829   1.405       .  A
C1828      H1832   1.085       .  S
C1829      C1830   1.394       .  A
C1829      C1976   1.455       .  S
C1830      H1833   1.084       .  S
C1834      C1844   1.462       .  S
C1834      N1835   1.353       .  A
C1834      N1839   1.362       .  A
N1835      C1836   1.352       .  A
C1836      N1837   1.361       .  A
N1837      C1838   1.359       .  A
C1838      N1839   1.359       .  A
C1840      C1841   1.403       .  A
C1840      C1845   1.407       .  A
C1840      C1885   1.473       .  S
C1841      C1842   1.406       .  A
C1841      H1846   1.084       .  S
C1842      C1843   1.396       .  A
C1842      C1991   1.464       .  S
C1843      C1844   1.392       .  A
C1843      H1847   1.085       .  S
C1844      C1845   1.403       .  A
C1845      H1848   1.084       .  S
Zr1849     O1850   2.444       .  S
Zr1849     O2451   2.379       .  S
Zr1849     O2452   2.383       .  S
Zr1849     O1859   2.416       .  S
Zr1849     O1860   2.405       .  S
Zr1849     O2445   2.445       .  S
Zr1849     O2446   2.435       .  S
O1850      H1906   0.990       .  S
O1850      H1914   0.991       .  S
O1851     Zr3037   2.446   1_545  S
O1851      C1871   1.283       .  A
O1852     Zr3037   2.441   1_545  S
O1852      C1873   1.285       .  A
O1853     Zr1863   2.461   1_554  S
O1853      C1872   1.289       .  A
O1854     Zr1862   2.428   1_554  S
O1854      C1873   1.285       .  A
O1855      C1872   1.283       .  A
O1856     Zr1864   2.390       .  S
O1856      C1871   1.275       .  A
O1857     Zr3037   2.379   1_545  S
O1857     Zr1862   2.401   1_554  S
O1857     Zr1864   2.380       .  S
O1858     Zr3037   2.385   1_545  S
O1858     Zr1864   2.378       .  S
O1859     Zr2456   2.403   1_554  S
O1859     Zr1879   2.380   1_554  S
O1859      H1896   0.965       .  S
O1860     Zr1879   2.390   1_554  S
Zr1861     O1886   2.443       .  S
Zr1861     O1867   2.398       .  S
Zr1861     O1868   2.418       .  S
Zr1861     O3057   2.374   1_545  S
Zr1861     O3058   2.388   1_545  S
Zr1861     O3068   2.470   1_545  S
Zr1861     O3076   2.432       .  S
Zr1861     O1876   2.429       .  S
Zr1862     O1881   2.434       .  S
Zr1862     O1874   2.433   1_556  S
Zr1862     O3047   2.403   1_546  S
Zr1862     O1868   2.397       .  S
Zr1862     O3057   2.392   1_545  S
Zr1862     O1875   2.441       .  S
Zr1863     O1865   2.435       .  S
Zr1863     O1887   2.438   1_556  S
Zr1863     O1889   2.451       .  S
Zr1864     O1891   2.435   1_554  S
Zr1864     O1866   2.437       .  S
Zr1864     O1867   2.375   1_554  S
Zr1864     O1868   2.375   1_554  S
O1865      H1902   0.990       .  S
O1866      H1897   0.990       .  S
O1866      H1911   0.990       .  S
O1868      H1894   0.963       .  S
O1869     Zr2455   2.376       .  S
O1869     Zr2456   2.393       .  S
O1869     Zr1879   2.388       .  S
O1870     Zr2455   2.391       .  S
O1870     Zr1879   2.391       .  S
O1870      H1895   0.966       .  S
O1874      H1910   0.990       .  S
O1875      C1877   1.286       .  A
O1876      C1877   1.281       .  A
O1878     Zr1879   2.442   1_554  S
O1878      H1907   0.990       .  S
Zr1879     O1882   2.440   1_556  S
Zr1879     O1883   2.444       .  S
Zr1879     O1884   2.401       .  S
O1880     Zr2455   2.461       .  S
O1880      C1885   1.286       .  A
O1881      H1898   0.990       .  S
O1881      H3101   0.990   1_556  S
O1882      H1899   0.990   1_554  S
O1883      H1903   0.991       .  S
O1884      C1885   1.276       .  A
O1886      H1905   0.991       .  S
O1886      H1909   0.990       .  S
O1887      H1901   0.990       .  S
O1887      H1908   0.990       .  S
O1888     Zr2455   2.428       .  S
O1889      C1892   1.291       .  A
O1891      H1904   0.990       .  S
H1913      O2475   0.990   1_554  S
C1915      C1916   1.391       .  A
C1915      C1920   1.423       .  A
C1915      C2071   1.480       .  S
C1916      C1917   1.391       .  A
C1916      H2515   1.085       .  S
C1917      C1918   1.396       .  A
C1918      C1919   1.401       .  A
C1918      H1922   1.085   1_655  S
C1919      C1920   1.418       .  A
C1919      C1970   1.484       .  S
C1920      H1923   1.083       .  S
H1921      C3104   1.085       .  S
C1924      C1925   1.400       .  A
C1924      C1929   1.404       .  A
C1924      C3257   1.466   1_545  S
C1925      C1926   1.407       .  A
C1925      H1930   1.084       .  S
C1926      C1927   1.394       .  A
C1926      C1972   1.459       .  S
C1927      C1928   1.393       .  A
C1927      H1931   1.085       .  S
C1928      C1929   1.400       .  A
C1928      C1942   1.460       .  S
C1929      H3120   1.085   1_545  S
H1932      C2523   1.085       .  S
C1933      C1934   1.398       .  A
C1933      C1938   1.400       .  A
C1933      C2070   1.450       .  S
C1934      C1935   1.397       .  A
C1934      H1939   1.084       .  S
C1935      C1936   1.398       .  A
C1935      C1971   1.453       .  S
C1936      C1937   1.399       .  A
C1937      C1938   1.397       .  A
C1937      C1944   1.460       .  S
C1938      H1941   1.085       .  S
C1942      N1943   1.360       .  A
C1942      N1947   1.356       .  A
N1943      C1944   1.355       .  A
C1944      N1945   1.350       .  A
N1945      C1946   1.354       .  A
C1946      N1947   1.355       .  A
Zr1948     O1949   2.444       .  S
Zr1948     O1956   2.373       .  S
Zr1948     O1957   2.383       .  S
Zr1948     O1958   2.420       .  S
Zr1948     O1959   2.407       .  S
Zr1948     O1950   2.469       .  S
Zr1948     O1951   2.425       .  S
Zr1948     O1954   2.413       .  S
O1949      H2005   0.990       .  S
O1949      H2013   0.991       .  S
O1950      C1970   1.287       .  A
O1951      C1972   1.280       .  A
O1952     Zr1962   2.430       .  S
O1952      C1971   1.284       .  A
O1953     Zr1961   2.421       .  S
O1953      C1972   1.283       .  A
O1955     Zr1963   2.418       .  S
O1955      C1970   1.279       .  A
O1956     Zr1961   2.401       .  S
O1956     Zr1963   2.381       .  S
O1957     Zr1963   2.378       .  S
O1957      H1992   0.966       .  S
O1958     Zr1961   2.399       .  S
O1958     Zr1978   2.385       .  S
O1958      H1995   0.964       .  S
O1959     Zr1978   2.387       .  S
Zr1960     O1985   2.444       .  S
Zr1960     O1966   2.412       .  S
Zr1960     O1967   2.418       .  S
Zr1960     O1968   2.374       .  S
Zr1960     O1969   2.382       .  S
Zr1960     O1979   2.480       .  S
Zr1960     O1975   2.435       .  S
Zr1961     O1980   2.436       .  S
Zr1961     O1973   2.435       .  S
Zr1961     O1967   2.398       .  S
Zr1961     O1968   2.402       .  S
Zr1961     O1974   2.425       .  S
Zr1962     O1964   2.436       .  S
Zr1962     O1986   2.438       .  S
Zr1962     O1988   2.424       .  S
Zr1963     O1989   2.436   1_655  S
Zr1963     O1990   2.435       .  S
Zr1963     O1965   2.437       .  S
Zr1963     O1966   2.397       .  S
Zr1963     O1967   2.385       .  S
O1964      H2001   0.990       .  S
O1965      H1996   0.990       .  S
O1965      H2010   0.990       .  S
O1967      H1993   0.964       .  S
O1968     Zr1978   2.386       .  S
O1969     Zr1978   2.376       .  S
O1969      H1994   0.965       .  S
O1973      H2009   0.990       .  S
O1974      C1976   1.282       .  A
O1975      C1976   1.282       .  A
O1977     Zr1978   2.440       .  S
O1977      H3194   0.990       .  S
Zr1978     O1981   2.438       .  S
Zr1978     O1982   2.441       .  S
Zr1978     O1983   2.412       .  S
O1979      C1984   1.290       .  A
O1980      H1997   0.990       .  S
O1980      H2012   0.990       .  S
O1981      H3186   0.990   1_545  S
O1982      H2002   0.990       .  S
O1982      H2011   0.990   1_655  S
O1983      C1984   1.279       .  A
O1985      H2004   0.991       .  S
O1985      H2008   0.990       .  S
O1986      H2000   0.990       .  S
O1986      H2007   0.990       .  S
O1987      C1991   1.280       .  A
O1988      C1991   1.284       .  A
O1989      H1999   0.990       .  S
O1990      H2003   0.990       .  S
H1998      O2575   0.990       .  S
H2006      O2571   0.990       .  S
C2014      C2015   1.412       .  A
C2014      C2019   1.403       .  A
C2014      C2182   1.477       .  S
C2015      C2016   1.408       .  A
C2015      H2020   1.084       .  S
C2016      C2017   1.396       .  A
C2016      C2041   1.478       .  S
C2017      C2018   1.400       .  A
C2017      H2021   1.085       .  S
C2018      C2019   1.402       .  A
C2018      C2083   1.457       .  S
C2019      H2022   1.084       .  S
C2023      C2024   1.403       .  A
C2023      C2028   1.405       .  A
C2023      C2090   1.476       .  S
C2024      C2025   1.394       .  A
C2024      H2029   1.084       .  S
C2025      C2026   1.410       .  A
C2025      C2174   1.460       .  S
C2026      C2027   1.402       .  A
C2026      H2030   1.084       .  S
C2027      C2028   1.406       .  A
C2028      H2031   1.084       .  S
C2032      C2037   1.415       .  A
C2033      H2038   1.086       .  S
C2034      C2035   1.400       .  A
C2034      C2045   1.462       .  S
C2035      C2036   1.409       .  A
C2035      H2039   1.084       .  S
C2036      C2037   1.410       .  A
C2036      C2075   1.478   1_545  S
C2037      H3228   1.083       .  S
H2040      C2631   1.083       .  S
C2041      N2042   1.371       .  A
C2041      N2046   1.362       .  A
N2042      C2043   1.364       .  A
C2043      N2044   1.348       .  A
N2044      C2045   1.349       .  A
C2045      N2046   1.356       .  A
Zr2047     O2048   2.447       .  S
Zr2047     O2055   2.382       .  S
Zr2047     O2056   2.384       .  S
Zr2047     O2057   2.412       .  S
Zr2047     O2058   2.401       .  S
Zr2047     O2049   2.458       .  S
Zr2047     O2050   2.433       .  S
Zr2047     O2053   2.409       .  S
O2048      H2104   0.991       .  S
O2048      H2112   0.991       .  S
O2049      C2069   1.285       .  A
O2050      C2071   1.280       .  A
O2051     Zr2061   2.430       .  S
O2051      C2070   1.283       .  A
O2052     Zr2060   2.468       .  S
O2052      C2071   1.294       .  A
O2053      C2070   1.278       .  A
O2054     Zr3250   2.389   1_545  S
O2054      C3257   1.274   1_545  A
O2055     Zr2060   2.404       .  S
O2055     Zr2062   2.392       .  S
O2056     Zr2061   2.393       .  S
O2056     Zr2062   2.377       .  S
O2056      H2091   0.966       .  S
O2057     Zr2060   2.398       .  S
O2057     Zr2077   2.368       .  S
O2057      H2094   0.963       .  S
O2058     Zr2061   2.384       .  S
O2058     Zr2077   2.383       .  S
Zr2059     O2084   2.446       .  S
Zr2059     O2065   2.395       .  S
Zr2059     O2066   2.415       .  S
Zr2059     O2067   2.381       .  S
Zr2059     O2068   2.383       .  S
Zr2059     O2078   2.442       .  S
Zr2059     O2086   2.433       .  S
Zr2059     O2074   2.436       .  S
Zr2060     O2079   2.434       .  S
Zr2060     O2666   2.434       .  S
Zr2060     O2066   2.406       .  S
Zr2060     O2067   2.405       .  S
Zr2060     O2667   2.467       .  S
Zr2061     O2063   2.433       .  S
Zr2061     O2085   2.438       .  S
Zr2061     O2065   2.387       .  S
Zr2061     O2068   2.396       .  S
Zr2061     O2087   2.424       .  S
Zr2062     O2088   2.434       .  S
Zr2062     O2683   2.436       .  S
Zr2062     O2658   2.438       .  S
Zr2062     O2065   2.382       .  S
Zr2062     O2066   2.373       .  S
Zr2062     O2648   2.385       .  S
O2063      H2100   0.990       .  S
O2064     Zr3250   2.436   1_545  S
O2064      H2095   0.991       .  S
O2064      H2109   0.990       .  S
O2066      H2686   0.964       .  S
O2067     Zr2077   2.386       .  S
O2068     Zr2077   2.377       .  S
O2068      H2093   0.966       .  S
C2069      C2518   1.464       .  S
C2069      O2648   1.274       .  A
O2072     Zr3248   2.435   1_545  S
O2072      H2108   0.990       .  S
O2073     Zr3248   2.474       .  S
O2073      C2075   1.292       .  A
O2074      C2669   1.282       .  A
C2075      O3262   1.282       .  A
O2076     Zr2077   2.440       .  S
O2076      H2105   0.990       .  S
Zr2077     O2080   2.438       .  S
Zr2077     O2081   2.440       .  S
Zr2077     O2082   2.389       .  S
O2078      C2083   1.282       .  A
O2079      H2096   0.990       .  S
O2079      H2111   0.990       .  S
O2080      H2097   0.990       .  S
O2081      H2101   0.990       .  S
O2081      H2110   0.990       .  S
O2082      C2083   1.275       .  A
O2084      H2103   0.991       .  S
O2084      H2701   0.990       .  S
O2085      H2099   0.990       .  S
O2085      H2106   0.990       .  S
O2086      C2090   1.285       .  A
O2087      C2090   1.283       .  A
O2088      H2692   0.990       .  S
O2089     Zr3250   2.437   1_545  S
O2089      H2102   0.990       .  S
H2092      O3254   0.964   1_545  S
H2098      O3276   0.990   1_545  S
H2107      O3272   0.991       .  S
C2113      C2114   1.405       .  A
C2113      C2118   1.405       .  A
C2113      C2168   1.471       .  S
C2114      C2115   1.405       .  A
C2114      H2119   1.084       .  S
C2115      C2116   1.398       .  A
C2115      C2347   1.459       .  S
C2116      C2117   1.394       .  A
C2116      H2120   1.085       .  S
C2117      C2118   1.402       .  A
C2117      C2140   1.467       .  S
C2118      H2121   1.085       .  S
C2122      C2123   1.407       .  A
C2122      C2127   1.402       .  A
C2122      C2339   1.476       .  S
C2123      C2124   1.396       .  A
C2124      C2125   1.400       .  A
C2124      C2169   1.456       .  S
C2125      C2126   1.395       .  A
C2125      H2129   1.085       .  S
C2126      C2127   1.406       .  A
C2126      C2144   1.461       .  S
C2127      H2130   1.084       .  S
C2131      C2132   1.416       .  A
C2131      C3324   1.390   1_545  A
C2131      C2170   1.473       .  S
C2132      C2133   1.411       .  A
C2132      H2137   1.083       .  S
C2133      C3322   1.400       .  A
C2133      C2354   1.469       .  S
C2134      C2727   1.400       .  A
C2134      C2135   1.392       .  A
C2134      H2138   1.085       .  S
C2135      C2136   1.393       .  A
C2135      C2142   1.447       .  S
C2136      C2725   1.390       .  A
C2136      H2139   1.085       .  S
C2140      N2141   1.359       .  A
C2140      N2145   1.368       .  A
N2141      C2142   1.352       .  A
C2142      N2143   1.344       .  A
N2143      C2144   1.342       .  A
C2144      N2145   1.361       .  A
Zr2146     O2147   2.446       .  S
Zr2146     O2154   2.375   1_545  S
Zr2146     O2155   2.384       .  S
Zr2146     O2156   2.419       .  S
Zr2146     O2157   2.400       .  S
Zr2146     O2148   2.466   1_545  S
Zr2146     O2149   2.422       .  S
Zr2146     O2152   2.410       .  S
O2147      H2203   0.990       .  S
O2147      H2211   0.991       .  S
O2149      C2170   1.279       .  A
O2150     Zr2160   2.451       .  S
O2150      C2169   1.288       .  A
O2151     Zr2159   2.458       .  S
O2151      C2764   1.292       .  A
O2152      C2169   1.278       .  A
O2153     Zr2161   2.391       .  S
O2153      C2168   1.274       .  A
O2154     Zr3347   2.405       .  S
O2155     Zr2160   2.404       .  S
O2155      H2190   0.967       .  S
O2156     Zr3347   2.397   1_545  S
O2156     Zr2176   2.374       .  S
O2156      H2193   0.962       .  S
O2157     Zr2160   2.379       .  S
O2157     Zr2176   2.379       .  S
Zr2158     O3371   2.445       .  S
Zr2158     O2164   2.401       .  S
Zr2158     O3353   2.419   1_545  S
Zr2158     O2166   2.378       .  S
Zr2158     O2167   2.385       .  S
Zr2158     O2177   2.479       .  S
Zr2158     O2185   2.425       .  S
Zr2158     O3361   2.430   1_545  S
Zr2159     O2772   2.436       .  S
Zr2159     O2171   2.434       .  S
Zr2159     O2748   2.404       .  S
Zr2159     O2750   2.394       .  S
Zr2159     O2165   2.402       .  S
Zr2159     O2760   2.406       .  S
Zr2159     O2172   2.453       .  S
Zr2160     O2162   2.435       .  S
Zr2160     O2164   2.372       .  S
Zr2160     O2167   2.404       .  S
Zr2160     O2186   2.457       .  S
Zr2161     O2187   2.437       .  S
Zr2161     O2188   2.436       .  S
Zr2161     O2163   2.438       .  S
O2162      H2199   0.990       .  S
O2163      H2194   0.990       .  S
O2163      H2208   0.990       .  S
O2165     Zr2752   2.420       .  S
O2165      H2191   0.962       .  S
O2166     Zr3347   2.406   1_545  S
O2166     Zr2176   2.391       .  S
O2167     Zr2176   2.383       .  S
O2167      H2192   0.965       .  S
C2170      O3339   1.292   1_545  A
O2171      H2207   0.990       .  S
O2172      C2174   1.288       .  A
O2173     Zr2752   2.427       .  S
O2173      C2174   1.281       .  A
O2175     Zr2176   2.438       .  S
O2175      H2204   0.990       .  S
Zr2176     O2179   2.439       .  S
Zr2176     O2180   2.440       .  S
Zr2176     O2181   2.389       .  S
O2177      C2182   1.290       .  A
O2178     Zr3347   2.435   1_545  S
O2178      H3383   0.990   1_545  S
O2178      H2210   0.990       .  S
O2179      H2196   0.990       .  S
O2180      H2200   0.990       .  S
O2180      H2209   0.990       .  S
O2181      C2182   1.273       .  A
O2183     Zr2752   2.445       .  S
O2183      H2206   0.990       .  S
O2184      H2198   0.990       .  S
O2184      H2205   0.990       .  S
O2185      C2189   1.281       .  A
O2186      C2189   1.293       .  A
O2187      H2197   0.990       .  S
O2188      H2201   0.990       .  S
H2195      O2772   0.990       .  S
C2212      C2213   1.408       .  A
C2212      C2217   1.407       .  A
C2212      C2281   1.482       .  S
C2213      C2214   1.406       .  A
C2213      H2218   1.084       .  S
C2214      C2809   1.397       .  A
C2215      C3402   1.398       .  A
C2215      C2216   1.403       .  A
C2216      C3405   1.407       .  A
C2216      C2333   1.468       .  S
C2217      C2810   1.408       .  A
C2217      H2220   1.084       .  S
C2221      C2222   1.403       .  A
C2221      C2226   1.403       .  A
C2221      C2334   1.471       .  S
C2222      C2223   1.391       .  A
C2222      H2227   1.084       .  S
C2223      C2224   1.410       .  A
C2223      C2273   1.461       .  S
C2224      C2225   1.404       .  A
C2224      H2228   1.084       .  S
C2225      C2226   1.406       .  A
C2225      C2243   1.476       .  S
C2226      H2229   1.084       .  S
C2230      C2231   1.394       .  A
C2230      C2235   1.410       .  A
C2230      C2288   1.467       .  S
C2231      C2232   1.392       .  A
C2231      H2236   1.085       .  S
C2232      C2233   1.398       .  A
C2232      C2241   1.462       .  S
C2233      C2234   1.408       .  A
C2233      H2237   1.084       .  S
C2234      C2235   1.404       .  A
C2234      C2335   1.467       .  S
C2235      H2238   1.084       .  S
C2239      N3428   1.360   1_545  A
C2239      N2244   1.371       .  A
N2240      C2833   1.362       .  A
N2240      C2241   1.355       .  A
C2241      N2836   1.349       .  A
N2242      C3429   1.350   1_545  A
N2242      C2243   1.348       .  A
C2243      N2244   1.365       .  A
Zr2245     O2246   2.445       .  S
Zr2245     O2253   2.376       .  S
Zr2245     O2254   2.385       .  S
Zr2245     O2255   2.421       .  S
Zr2245     O2256   2.405       .  S
Zr2245     O2247   2.470       .  S
Zr2245     O2248   2.431       .  S
Zr2245     O2251   2.409       .  S
O2246      H2302   0.990       .  S
O2246      H2310   0.991       .  S
O2247      C2267   1.287       .  A
O2248      C2269   1.280       .  A
O2249     Zr2259   2.439       .  S
O2249      C2268   1.286       .  A
O2250     Zr2258   2.474       .  S
O2250      C2269   1.296       .  A
O2251      C2268   1.278       .  A
O2252     Zr2260   2.382       .  S
O2252      C2267   1.272       .  A
O2253     Zr2258   2.405       .  S
O2253     Zr2260   2.390       .  S
O2254     Zr2259   2.403       .  S
O2254     Zr2260   2.378       .  S
O2254      H2289   0.966       .  S
O2255     Zr2258   2.397       .  S
O2255     Zr2275   2.374       .  S
O2255      H2292   0.962       .  S
O2256     Zr2259   2.380       .  S
O2256     Zr2275   2.387       .  S
Zr2257     O2282   2.444       .  S
Zr2257     O2263   2.398       .  S
Zr2257     O2264   2.420       .  S
Zr2257     O2265   2.380       .  S
Zr2257     O2266   2.381       .  S
Zr2257     O2276   2.471       .  S
Zr2257     O2284   2.423       .  S
Zr2257     O2272   2.424       .  S
Zr2258     O2277   2.435       .  S
Zr2258     O2270   2.435       .  S
Zr2258     O2264   2.408       .  S
Zr2258     O2265   2.411       .  S
Zr2258     O2271   2.458       .  S
Zr2259     O2261   2.437       .  S
Zr2259     O2283   2.438       .  S
Zr2259     O2263   2.372       .  S
Zr2259     O2266   2.403       .  S
Zr2259     O2285   2.440       .  S
Zr2260     O2286   2.435       .  S
Zr2260     O2287   2.436       .  S
Zr2260     O2262   2.438       .  S
Zr2260     O2263   2.376       .  S
Zr2260     O2264   2.369       .  S
O2261      H2892   0.990       .  S
O2262      H2293   0.990       .  S
O2262      H2307   0.990       .  S
O2264      H2290   0.962       .  S
O2265     Zr2275   2.387       .  S
O2266     Zr2275   2.380       .  S
O2266      H2291   0.966       .  S
O2270      H2306   0.990       .  S
O2271      C2273   1.289       .  A
O2272      C2273   1.280       .  A
O2274     Zr2275   2.439       .  S
O2274      H2897   0.990       .  S
Zr2275     O2278   2.438       .  S
Zr2275     O2873   2.439       .  S
Zr2275     O2280   2.406       .  S
O2276      C2281   1.287       .  A
O2277      H2294   0.990       .  S
O2277      H2309   0.990       .  S
O2278      H2295   0.990       .  S
O2279     Zr3463   2.440   1_545  S
O2279      H2299   0.990       .  S
O2279      H2308   0.990       .  S
O2280      C2281   1.277       .  A
O2282      H2301   0.991       .  S
O2282      H2305   0.990       .  S
O2283      H2297   0.990       .  S
O2283      H2304   0.990       .  S
O2284      C2288   1.281       .  A
O2285      C2288   1.288       .  A
O2286      H2296   0.990       .  S
O2287      H2300   0.990       .  S
H2298      O3449   0.990       .  S
H2303      O3462   0.990   1_545  S
Zr2311     O2312   2.443       .  S
Zr2311     O2319   2.376       .  S
Zr2311     O2320   2.383       .  S
Zr2311     O2321   2.413       .  S
Zr2311     O2322   2.403       .  S
Zr2311     O2313   2.452       .  S
Zr2311     O2317   2.412       .  S
O2312      H2368   0.990       .  S
O2312      H2376   0.991       .  S
O2313      C2333   1.284       .  A
O2314      C2335   1.284       .  A
O2315     Zr2325   2.428       .  S
O2315      C2334   1.284       .  A
O2316      C2335   1.286       .  A
O2317      C2334   1.281       .  A
O2318     Zr2326   2.401       .  S
O2318      C2333   1.276       .  A
O2319     Zr2324   2.402   1_655  S
O2319     Zr2326   2.388       .  S
O2320     Zr2325   2.403       .  S
O2320     Zr2326   2.375       .  S
O2320      H2355   0.967       .  S
O2321     Zr2324   2.400   1_655  S
O2321     Zr2341   2.373       .  S
O2321      H2358   0.963       .  S
O2322     Zr2325   2.389       .  S
O2322     Zr2341   2.389       .  S
Zr2323     O2348   2.443       .  S
Zr2323     O2329   2.397       .  S
Zr2323     O2330   2.412       .  S
Zr2323     O2331   2.379       .  S
Zr2323     O2332   2.383       .  S
Zr2323     O2342   2.444       .  S
Zr2323     O2350   2.442       .  S
Zr2323     O2338   2.423       .  S
Zr2324     O2330   2.405   1_455  S
Zr2324     O2331   2.400   1_455  S
Zr2325     O2327   2.436       .  S
Zr2325     O2349   2.434       .  S
Zr2325     O2329   2.390       .  S
Zr2325     O2332   2.394       .  S
Zr2325     O2351   2.438       .  S
Zr2326     O2352   2.437       .  S
Zr2326     O2353   2.436       .  S
Zr2326     O2328   2.436       .  S
Zr2326     O2329   2.385       .  S
Zr2326     O2330   2.382       .  S
O2327      H2364   0.990       .  S
O2328      H2359   0.991       .  S
O2330      H2356   0.964       .  S
O2331     Zr2341   2.382       .  S
O2332     Zr2341   2.380       .  S
O2332      H2357   0.966       .  S
O2336      H2372   0.990       .  S
O2337      C2339   1.286       .  A
O2340     Zr2341   2.441       .  S
O2340      H2369   0.990       .  S
Zr2341     O2344   2.440       .  S
Zr2341     O2345   2.438       .  S
Zr2341     O2346   2.399       .  S
O2342      C2347   1.283       .  A
O2343      H2360   0.990       .  S
O2343      H2375   0.990       .  S
O2344      H2361   0.990       .  S
O2345      H2365   0.990       .  S
O2345      H2374   0.990       .  S
O2346      C2347   1.277       .  A
O2348      H2367   0.990       .  S
O2348      H2371   0.991       .  S
O2349      H2363   0.990       .  S
O2349      H2370   0.990       .  S
O2350      C2354   1.285       .  A
O2351      C2354   1.283       .  A
O2352      H3550   0.990   1_545  S
O2353      H2366   0.990       .  S
H2362      O2946   0.990       .  S
C2377      C2378   1.408       .  A
C2377      C2382   1.404       .  A
C2377      C2861   1.473       .  S
C2378      H2383   1.084       .  S
C2379      C2380   1.395       .  A
C2379      C2404   1.474       .  S
C2380      H2384   1.085       .  S
C2381      C2382   1.404       .  A
C2381      C2465   1.458       .  S
C2382      H2385   1.084       .  S
C2386      C2387   1.392       .  A
C2386      C2391   1.423       .  A
C2386      C2863   1.484       .  S
C2387      C2388   1.394       .  A
C2387      H2392   1.085       .  S
C2388      C2389   1.391       .  A
C2388      C2406   1.450       .  S
C2389      C2390   1.400       .  A
C2389      H2393   1.085       .  S
C2390      C2391   1.416       .  A
C2390      C2466   1.477       .  S
C2391      H2394   1.083       .  S
C2395      C2400   1.402       .  A
C2395      C2467   1.475       .  S
C2396      C2989   1.405       .  A
C2396      C2397   1.398       .  A
C2396      H2401   1.084       .  S
C2397      C2992   1.401       .  A
C2397      C2862   1.453       .  S
C2398      C2399   1.394       .  A
C2398      H2402   1.085       .  S
C2399      C2400   1.404       .  A
C2399      C2408   1.462       .  S
C2400      H2403   1.084       .  S
C2404      N2405   1.361       .  A
C2404      N2409   1.369       .  A
N2405      C2406   1.353       .  A
C2406      N2407   1.343       .  A
N2407      C2408   1.342       .  A
C2408      N2409   1.362       .  A
C2410      C3005   1.417       .  A
C2410      C2415   1.394       .  A
C2410      C2486   1.475       .  S
C2411      C2412   1.414       .  A
C2411      H2416   1.083       .  S
C2412      C2578   1.487       .  S
C2413      C3006   1.409       .  A
C2413      C2414   1.402       .  A
C2413      H2417   1.084       .  S
C2414      C2415   1.389       .  A
C2414      C2430   1.463       .  S
C2415      H2418   1.085       .  S
C2419      C2420   1.407       .  A
C2419      C2424   1.395       .  A
C2419      C2471   1.456       .  S
C2420      C2421   1.403       .  A
C2420      H2425   1.084       .  S
C2421      C2422   1.402       .  A
C2421      C2432   1.478       .  S
C2422      C2423   1.405       .  A
C2422      H2426   1.085       .  S
C2423      C2424   1.394       .  A
C2423      C2570   1.454       .  S
C2424      H2427   1.084       .  S
C2428      C2438   1.463       .  S
C2428      N2429   1.354       .  A
C2428      N2433   1.361       .  A
N2429      C2430   1.353       .  A
C2430      N2431   1.361       .  A
N2431      C2432   1.358       .  A
C2432      N2433   1.359       .  A
C2434      C2435   1.402       .  A
C2434      C2439   1.408       .  A
C2434      C2479   1.474       .  S
C2435      C2436   1.406       .  A
C2435      H2440   1.084       .  S
C2436      C2437   1.396       .  A
C2436      C2585   1.464       .  S
C2437      C2438   1.393       .  A
C2437      H2441   1.085       .  S
C2438      C2439   1.404       .  A
C2439      H2442   1.084       .  S
Zr2443     O2444   2.441       .  S
Zr2443     O3045   2.379       .  S
Zr2443     O3046   2.384       .  S
Zr2443     O2453   2.414       .  S
Zr2443     O2454   2.403       .  S
Zr2443     O3039   2.444       .  S
Zr2443     O3040   2.441       .  S
O2444      H2500   0.990       .  S
O2444      H2508   0.991       .  S
O2445      C2465   1.283       .  A
O2446      C2467   1.284       .  A
O2447     Zr2457   2.460   1_554  S
O2447      C2466   1.289       .  A
O2448     Zr2456   2.429   1_554  S
O2448      C2467   1.285       .  A
O2449      C2466   1.283       .  A
O2450     Zr2458   2.386       .  S
O2450      C2465   1.275       .  A
O2451     Zr2456   2.399   1_554  S
O2451     Zr2458   2.379       .  S
O2452     Zr2458   2.378       .  S
O2453     Zr3050   2.405   1_554  S
O2453     Zr2473   2.384   1_554  S
O2453      H2490   0.965       .  S
O2454     Zr2473   2.388   1_554  S
Zr2455     O2480   2.444       .  S
Zr2455     O2461   2.395       .  S
Zr2455     O2462   2.415       .  S
Zr2455     O2470   2.427       .  S
Zr2456     O2475   2.435       .  S
Zr2456     O2468   2.435   1_556  S
Zr2456     O2462   2.395       .  S
Zr2456     O2469   2.440       .  S
Zr2457     O2459   2.437       .  S
Zr2457     O2481   2.435   1_556  S
Zr2457     O2483   2.451       .  S
Zr2458     O2485   2.435   1_554  S
Zr2458     O2460   2.438       .  S
Zr2458     O2461   2.374   1_554  S
Zr2458     O2462   2.373   1_554  S
O2459      H2496   0.990       .  S
O2460      H2491   0.990       .  S
O2460      H2505   0.990       .  S
O2462      H2488   0.963       .  S
O2463     Zr3049   2.375       .  S
O2463     Zr3050   2.391       .  S
O2463     Zr2473   2.388       .  S
O2464     Zr3049   2.391       .  S
O2464     Zr2473   2.391       .  S
O2464      H2489   0.966       .  S
O2468      H2504   0.990   1_554  S
O2469      C2471   1.285       .  A
O2470      C2471   1.280       .  A
O2472     Zr2473   2.442   1_554  S
O2472      H2501   0.990       .  S
Zr2473     O2476   2.439   1_556  S
Zr2473     O2477   2.444       .  S
Zr2473     O2478   2.399       .  S
O2474     Zr3049   2.466       .  S
O2474      C2479   1.288       .  A
O2475      H2492   0.990       .  S
O2476      H2493   0.990   1_554  S
O2477      H2497   0.990       .  S
O2478      C2479   1.276       .  A
O2480      H2499   0.991       .  S
O2480      H2503   0.990       .  S
O2481      H2495   0.990       .  S
O2481      H2502   0.990       .  S
O2482     Zr3049   2.434       .  S
O2483      C2486   1.291       .  A
O2485      H2498   0.990       .  S
H2507      O3069   0.990   1_554  S
C2509      C2510   1.391       .  A
C2509      C2514   1.425       .  A
C2509      C2665   1.481       .  S
C2510      C2511   1.391       .  A
C2510      H3109   1.085       .  S
C2511      C2512   1.396       .  A
C2512      C2513   1.401       .  A
C2512      H2516   1.085   1_655  S
C2513      C2514   1.419       .  A
C2513      C2564   1.485       .  S
C2514      H2517   1.083       .  S
C2518      C2519   1.401       .  A
C2518      C2523   1.402       .  A
C2519      C2520   1.408       .  A
C2519      H2524   1.084       .  S
C2520      C2521   1.394       .  A
C2520      C2566   1.460       .  S
C2521      C2522   1.392       .  A
C2521      H2525   1.085       .  S
C2522      C2523   1.398       .  A
C2522      C2536   1.458       .  S
H2526      C3117   1.085       .  S
C2527      C2528   1.398       .  A
C2527      C2532   1.400       .  A
C2527      C2664   1.450       .  S
C2528      C2529   1.397       .  A
C2528      H2533   1.084       .  S
C2529      C2530   1.399       .  A
C2529      C2565   1.454       .  S
C2530      C2531   1.398       .  A
C2531      C2532   1.397       .  A
C2531      C2538   1.459       .  S
C2532      H2535   1.085       .  S
C2536      N2537   1.359       .  A
C2536      N2541   1.355       .  A
N2537      C2538   1.354       .  A
C2538      N2539   1.351       .  A
N2539      C2540   1.354       .  A
C2540      N2541   1.354       .  A
Zr2542     O2543   2.444       .  S
Zr2542     O2550   2.373       .  S
Zr2542     O2551   2.383       .  S
Zr2542     O2552   2.421       .  S
Zr2542     O2553   2.407       .  S
Zr2542     O2544   2.470       .  S
Zr2542     O2545   2.424       .  S
Zr2542     O2548   2.416       .  S
O2543      H2599   0.990       .  S
O2543      H2607   0.991       .  S
O2544      C2564   1.287       .  A
O2545      C2566   1.280       .  A
O2546     Zr2556   2.426       .  S
O2546      C2565   1.283       .  A
O2547     Zr2555   2.428       .  S
O2547      C2566   1.284       .  A
O2549     Zr2557   2.420       .  S
O2549      C2564   1.280       .  A
O2550     Zr2555   2.401       .  S
O2550     Zr2557   2.383       .  S
O2551     Zr2557   2.376       .  S
O2551      H2586   0.966       .  S
O2552     Zr2555   2.398       .  S
O2552     Zr2572   2.383       .  S
O2552      H2589   0.964       .  S
O2553     Zr2572   2.387       .  S
Zr2554     O2579   2.443       .  S
Zr2554     O2560   2.410       .  S
Zr2554     O2561   2.417       .  S
Zr2554     O2562   2.373       .  S
Zr2554     O2563   2.380       .  S
Zr2554     O2573   2.480       .  S
Zr2554     O2569   2.431       .  S
Zr2555     O2574   2.436       .  S
Zr2555     O2567   2.435       .  S
Zr2555     O2561   2.400       .  S
Zr2555     O2562   2.399       .  S
Zr2555     O2568   2.425       .  S
Zr2556     O2558   2.437       .  S
Zr2556     O2580   2.437       .  S
Zr2556     O2582   2.425       .  S
Zr2557     O2583   2.439   1_655  S
Zr2557     O2584   2.437       .  S
Zr2557     O2559   2.437       .  S
Zr2557     O2560   2.398       .  S
Zr2557     O2561   2.386       .  S
O2558      H2595   0.990       .  S
O2559      H2590   0.990       .  S
O2559      H2604   0.990       .  S
O2561      H2587   0.964       .  S
O2562     Zr2572   2.385       .  S
O2563     Zr2572   2.379       .  S
O2563      H2588   0.965       .  S
O2567      H2603   0.990       .  S
O2568      C2570   1.283       .  A
O2569      C2570   1.281       .  A
O2571     Zr2572   2.441       .  S
Zr2572     O2575   2.440       .  S
Zr2572     O2576   2.440       .  S
Zr2572     O2577   2.410       .  S
O2573      C2578   1.290       .  A
O2574      H2591   0.990       .  S
O2574      H2606   0.990       .  S
O2576      H2596   0.990       .  S
O2576      H2605   0.990   1_655  S
O2577      C2578   1.279       .  A
O2579      H2598   0.991       .  S
O2579      H2602   0.990       .  S
O2580      H2594   0.990       .  S
O2580      H2601   0.990       .  S
O2581      C2585   1.280       .  A
O2582      C2585   1.284       .  A
O2583      H2593   0.990       .  S
O2584      H2597   0.990       .  S
H2592      O3169   0.990       .  S
H2600      O3165   0.990       .  S
C2608      C2609   1.412       .  A
C2608      C2613   1.404       .  A
C2608      C2776   1.478       .  S
C2609      C2610   1.409       .  A
C2609      H2614   1.084       .  S
C2610      C2611   1.397       .  A
C2610      C2635   1.479       .  S
C2611      C2612   1.401       .  A
C2611      H2615   1.085       .  S
C2612      C2613   1.403       .  A
C2612      C2677   1.461       .  S
C2613      H2616   1.084       .  S
C2617      C2618   1.402       .  A
C2617      C2622   1.403       .  A
C2617      C2684   1.471       .  S
C2618      C2619   1.392       .  A
C2618      H2623   1.084       .  S
C2619      C2620   1.410       .  A
C2619      C2768   1.459       .  S
C2620      C2621   1.403       .  A
C2620      H2624   1.084       .  S
C2621      C2622   1.405       .  A
C2622      H2625   1.084       .  S
C2626      C2631   1.414       .  A
C2627      H2632   1.085       .  S
C2628      C2629   1.398       .  A
C2628      C2639   1.458       .  S
C2629      C2630   1.408       .  A
C2629      H2633   1.084       .  S
C2630      C2631   1.408       .  A
C2630      C2669   1.473       .  S
H2634      C3225   1.084       .  S
C2635      N2636   1.371       .  A
C2635      N2640   1.362       .  A
N2636      C2637   1.364       .  A
C2637      N2638   1.348       .  A
N2638      C2639   1.348       .  A
C2639      N2640   1.355       .  A
Zr2641     O2642   2.445       .  S
Zr2641     O2649   2.383       .  S
Zr2641     O2650   2.385       .  S
Zr2641     O2651   2.416       .  S
Zr2641     O2652   2.400       .  S
Zr2641     O2643   2.464       .  S
Zr2641     O2644   2.431       .  S
Zr2641     O2647   2.411       .  S
O2642      H2698   0.991       .  S
O2642      H2706   0.990       .  S
O2643      C2663   1.286       .  A
O2644      C2665   1.280       .  A
O2645     Zr2655   2.429       .  S
O2645      C2664   1.283       .  A
O2646     Zr2654   2.474       .  S
O2646      C2665   1.296       .  A
O2647      C2664   1.278       .  A
O2649     Zr2654   2.406       .  S
O2649     Zr2656   2.394       .  S
O2650     Zr2655   2.393       .  S
O2650     Zr2656   2.379       .  S
O2650      H2685   0.966       .  S
O2651     Zr2654   2.396       .  S
O2651     Zr2671   2.368       .  S
O2651      H2688   0.963       .  S
O2652     Zr2655   2.381       .  S
O2652     Zr2671   2.383       .  S
Zr2653     O2678   2.446       .  S
Zr2653     O2659   2.402       .  S
Zr2653     O2660   2.415       .  S
Zr2653     O2661   2.378       .  S
Zr2653     O2662   2.384       .  S
Zr2653     O2672   2.451       .  S
Zr2653     O2680   2.424       .  S
Zr2653     O2668   2.437       .  S
Zr2654     O2673   2.435       .  S
Zr2654     O3260   2.433       .  S
Zr2654     O2660   2.407       .  S
Zr2654     O2661   2.402       .  S
Zr2654     O3261   2.467       .  S
Zr2655     O2657   2.434       .  S
Zr2655     O2679   2.441       .  S
Zr2655     O2659   2.389       .  S
Zr2655     O2662   2.399       .  S
Zr2655     O2681   2.422       .  S
Zr2656     O2682   2.437       .  S
Zr2656     O3277   2.436       .  S
Zr2656     O3252   2.437       .  S
Zr2656     O2659   2.383       .  S
Zr2656     O2660   2.374       .  S
Zr2656     O3242   2.388       .  S
O2657      H2694   0.990       .  S
O2658      H2689   0.991       .  S
O2658      H2703   0.990       .  S
O2660      H3280   0.964       .  S
O2661     Zr2671   2.385       .  S
O2662     Zr2671   2.378       .  S
O2662      H2687   0.966       .  S
C2663      C3112   1.467       .  S
C2663      O3242   1.274       .  A
O2666      H2702   0.990       .  S
O2667      C2669   1.291       .  A
O2668      C3263   1.283       .  A
O2670     Zr2671   2.439       .  S
O2670      H2699   0.990       .  S
Zr2671     O2674   2.438       .  S
Zr2671     O2675   2.439       .  S
Zr2671     O2676   2.387       .  S
O2672      C2677   1.284       .  A
O2673      H2690   0.990       .  S
O2673      H2705   0.990       .  S
O2674      H2691   0.990       .  S
O2675      H2695   0.990       .  S
O2675      H2704   0.990       .  S
O2676      C2677   1.274       .  A
O2678      H2697   0.991       .  S
O2678      H3295   0.991       .  S
O2679      H2693   0.990       .  S
O2679      H2700   0.990       .  S
O2680      C2684   1.283       .  A
O2681      C2684   1.283       .  A
O2682      H3286   0.990       .  S
O2683      H2696   0.990       .  S
C2707      C2708   1.403       .  A
C2707      C2712   1.406       .  A
C2707      C2762   1.471       .  S
C2708      C2709   1.404       .  A
C2708      H2713   1.084       .  S
C2709      C2710   1.398       .  A
C2709      C2941   1.455       .  S
C2710      C2711   1.393       .  A
C2710      H2714   1.085       .  S
C2711      C2712   1.403       .  A
C2711      C2734   1.470       .  S
C2712      H2715   1.084       .  S
C2716      C2717   1.406       .  A
C2716      C2721   1.402       .  A
C2716      C2933   1.474       .  S
C2717      C2718   1.395       .  A
C2718      C2719   1.400       .  A
C2718      C2763   1.453       .  S
C2719      C2720   1.395       .  A
C2719      H2723   1.085       .  S
C2720      C2721   1.406       .  A
C2720      C2738   1.462       .  S
C2721      H2724   1.084       .  S
C2725      C2726   1.417       .  A
C2725      C2764   1.476       .  S
C2726      C2727   1.412       .  A
C2726      H2731   1.083       .  S
C2727      C2948   1.471       .  S
C2728      C3321   1.400       .  A
C2728      C2729   1.392       .  A
C2728      H2732   1.085       .  S
C2729      C2730   1.394       .  A
C2729      C2736   1.449       .  S
C2730      C3319   1.391       .  A
C2730      H2733   1.085       .  S
C2734      N2735   1.359       .  A
C2734      N2739   1.368       .  A
N2735      C2736   1.352       .  A
C2736      N2737   1.344       .  A
N2737      C2738   1.343       .  A
C2738      N2739   1.362       .  A
Zr2740     O2741   2.446       .  S
Zr2740     O2748   2.373       .  S
Zr2740     O2749   2.389       .  S
Zr2740     O2750   2.419       .  S
Zr2740     O2751   2.403       .  S
Zr2740     O2742   2.465       .  S
Zr2740     O2743   2.429       .  S
Zr2740     O2746   2.402       .  S
O2741      H2797   0.990       .  S
O2741      H2805   0.991       .  S
O2743      C2764   1.280       .  A
O2744     Zr2754   2.447       .  S
O2744      C2763   1.287       .  A
O2745     Zr2753   2.462       .  S
O2745      C3358   1.293       .  A
O2746      C2763   1.277       .  A
O2747     Zr2755   2.390       .  S
O2747      C2762   1.274       .  A
O2749     Zr2754   2.407       .  S
O2749      H2784   0.967       .  S
O2750     Zr2770   2.374       .  S
O2750      H2787   0.962       .  S
O2751     Zr2754   2.379       .  S
O2751     Zr2770   2.380       .  S
Zr2752     O2758   2.401       .  S
Zr2752     O2760   2.377       .  S
Zr2752     O2761   2.387       .  S
Zr2752     O2771   2.473       .  S
Zr2752     O2779   2.419       .  S
Zr2753     O3366   2.435       .  S
Zr2753     O2765   2.434       .  S
Zr2753     O3342   2.405       .  S
Zr2753     O3344   2.393       .  S
Zr2753     O2759   2.404       .  S
Zr2753     O3354   2.405       .  S
Zr2753     O2766   2.452       .  S
Zr2754     O2756   2.437       .  S
Zr2754     O2758   2.371       .  S
Zr2754     O2761   2.404       .  S
Zr2754     O2780   2.462       .  S
Zr2755     O2781   2.437       .  S
Zr2755     O2782   2.435       .  S
Zr2755     O2757   2.438       .  S
O2756      H2793   0.990       .  S
O2757      H2788   0.991       .  S
O2757      H2802   0.990       .  S
O2759     Zr3346   2.422       .  S
O2759      H2785   0.962       .  S
O2760     Zr2770   2.390       .  S
O2761     Zr2770   2.384       .  S
O2761      H2786   0.965       .  S
O2765      H2801   0.990       .  S
O2766      C2768   1.288       .  A
O2767     Zr3346   2.428       .  S
O2767      C2768   1.281       .  A
O2769     Zr2770   2.440       .  S
O2769      H2798   0.990       .  S
Zr2770     O2773   2.437       .  S
Zr2770     O2774   2.441       .  S
Zr2770     O2775   2.397       .  S
O2771      C2776   1.289       .  A
O2772      H2804   0.990       .  S
O2773      H2790   0.990       .  S
O2774      H2794   0.990       .  S
O2774      H2803   0.990       .  S
O2775      C2776   1.274       .  A
O2777     Zr3346   2.445       .  S
O2777      H2800   0.990       .  S
O2778      H2792   0.990       .  S
O2778      H2799   0.990       .  S
O2779      C2783   1.279       .  A
O2780      C2783   1.293       .  A
O2781      H2791   0.990       .  S
O2782      H2795   0.990       .  S
H2789      O3366   0.990       .  S
C2806      C2807   1.409       .  A
C2806      C2811   1.407       .  A
C2806      C2875   1.482       .  S
C2807      C2808   1.407       .  A
C2807      H2812   1.084       .  S
C2808      C3403   1.397       .  A
C2809      C2810   1.402       .  A
C2810      C2927   1.467       .  S
C2811      C3404   1.407       .  A
C2811      H2814   1.084       .  S
C2815      C2816   1.405       .  A
C2815      C2820   1.402       .  A
C2815      C2928   1.473       .  S
C2816      C2817   1.392       .  A
C2816      H2821   1.084       .  S
C2817      C2818   1.409       .  A
C2817      C2867   1.463       .  S
C2818      C2819   1.403       .  A
C2818      H2822   1.084       .  S
C2819      C2820   1.405       .  A
C2819      C2837   1.474       .  S
C2820      H2823   1.084       .  S
C2824      C2825   1.392       .  A
C2824      C2829   1.409       .  A
C2824      C2882   1.464       .  S
C2825      C2826   1.390       .  A
C2825      H2830   1.085       .  S
C2826      C2827   1.399       .  A
C2826      C2835   1.462       .  S
C2827      C2828   1.409       .  A
C2827      H2831   1.084       .  S
C2828      C2829   1.403       .  A
C2828      C2929   1.467       .  S
C2829      H2832   1.084       .  S
C2833      N2838   1.370       .  A
N2834      C3427   1.362       .  A
N2834      C2835   1.354       .  A
C2835      N3430   1.350       .  A
N2836      C2837   1.348       .  A
C2837      N2838   1.364       .  A
Zr2839     O2840   2.445       .  S
Zr2839     O2847   2.378       .  S
Zr2839     O2848   2.384       .  S
Zr2839     O2849   2.424       .  S
Zr2839     O2850   2.404       .  S
Zr2839     O2841   2.473       .  S
Zr2839     O2842   2.426       .  S
Zr2839     O2845   2.409       .  S
O2840      H2896   0.990       .  S
O2840      H2904   0.991       .  S
O2841      C2861   1.288       .  A
O2842      C2863   1.279       .  A
O2843     Zr2853   2.443       .  S
O2843      C2862   1.286       .  A
O2844     Zr2852   2.480       .  S
O2844      C2863   1.297       .  A
O2845      C2862   1.278       .  A
O2846     Zr2854   2.385       .  S
O2846      C2861   1.273       .  A
O2847     Zr2852   2.407       .  S
O2847     Zr2854   2.394       .  S
O2848     Zr2853   2.401       .  S
O2848     Zr2854   2.377       .  S
O2848      H2883   0.966       .  S
O2849     Zr2852   2.397       .  S
O2849     Zr2869   2.376       .  S
O2849      H2886   0.962       .  S
O2850     Zr2853   2.375       .  S
O2850     Zr2869   2.381       .  S
Zr2851     O2876   2.446       .  S
Zr2851     O2857   2.399       .  S
Zr2851     O2858   2.420       .  S
Zr2851     O2859   2.380       .  S
Zr2851     O2860   2.383       .  S
Zr2851     O2870   2.478       .  S
Zr2851     O2878   2.423       .  S
Zr2851     O2866   2.425       .  S
Zr2852     O2871   2.435       .  S
Zr2852     O2864   2.434       .  S
Zr2852     O2858   2.407       .  S
Zr2852     O2859   2.412       .  S
Zr2852     O2865   2.464       .  S
Zr2853     O2855   2.437       .  S
Zr2853     O2877   2.437       .  S
Zr2853     O2857   2.374       .  S
Zr2853     O2860   2.403       .  S
Zr2853     O2879   2.434       .  S
Zr2854     O2880   2.437       .  S
Zr2854     O2881   2.438       .  S
Zr2854     O2856   2.437       .  S
Zr2854     O2857   2.373       .  S
Zr2854     O2858   2.371       .  S
O2855      H3486   0.990       .  S
O2856      H2887   0.990       .  S
O2856      H2901   0.990       .  S
O2858      H2884   0.962       .  S
O2859     Zr2869   2.392       .  S
O2860     Zr2869   2.377       .  S
O2860      H2885   0.965       .  S
O2864      H2900   0.990       .  S
O2865      C2867   1.290       .  A
O2866      C2867   1.280       .  A
O2868     Zr2869   2.438       .  S
O2868      H3491   0.990       .  S
Zr2869     O2872   2.436       .  S
Zr2869     O3467   2.440       .  S
Zr2869     O2874   2.399       .  S
O2870      C2875   1.289       .  A
O2871      H2888   0.990       .  S
O2871      H2903   0.990       .  S
O2872      H2889   0.990       .  S
O2873      H2893   0.990       .  S
O2873      H2902   0.990       .  S
O2874      C2875   1.276       .  A
O2876      H2895   0.992       .  S
O2876      H2899   0.990       .  S
O2877      H2891   0.990       .  S
O2877      H2898   0.990       .  S
O2878      C2882   1.281       .  A
O2879      C2882   1.288       .  A
O2880      H2890   0.990       .  S
O2881      H2894   0.990       .  S
Zr2905     O2906   2.443       .  S
Zr2905     O2913   2.376       .  S
Zr2905     O2914   2.385       .  S
Zr2905     O2915   2.409       .  S
Zr2905     O2916   2.408       .  S
Zr2905     O2907   2.448       .  S
Zr2905     O2911   2.410       .  S
O2906      H2962   0.990       .  S
O2906      H2970   0.991       .  S
O2907      C2927   1.283       .  A
O2908      C2929   1.283       .  A
O2909     Zr2919   2.433       .  S
O2909      C2928   1.285       .  A
O2910      C2929   1.287       .  A
O2911      C2928   1.280       .  A
O2912     Zr2920   2.403       .  S
O2912      C2927   1.277       .  A
O2913     Zr2918   2.403   1_655  S
O2913     Zr2920   2.390       .  S
O2914     Zr2919   2.402       .  S
O2914     Zr2920   2.374       .  S
O2914      H2949   0.967       .  S
O2915     Zr2918   2.402   1_655  S
O2915     Zr2935   2.373       .  S
O2915      H2952   0.963       .  S
O2916     Zr2919   2.393       .  S
O2916     Zr2935   2.391       .  S
Zr2917     O2942   2.443       .  S
Zr2917     O2923   2.399       .  S
Zr2917     O2924   2.411       .  S
Zr2917     O2925   2.380       .  S
Zr2917     O2926   2.387       .  S
Zr2917     O2936   2.437       .  S
Zr2917     O2944   2.439       .  S
Zr2917     O2932   2.427       .  S
Zr2918     O2924   2.403   1_455  S
Zr2918     O2925   2.402   1_455  S
Zr2919     O2921   2.436       .  S
Zr2919     O2943   2.436       .  S
Zr2919     O2923   2.391       .  S
Zr2919     O2926   2.395       .  S
Zr2919     O2945   2.444       .  S
Zr2920     O2946   2.436       .  S
Zr2920     O2947   2.435       .  S
Zr2920     O2922   2.437       .  S
Zr2920     O2923   2.385       .  S
Zr2920     O2924   2.383       .  S
O2921      H2958   0.990       .  S
O2922      H2953   0.991       .  S
O2924      H2950   0.964       .  S
O2925     Zr2935   2.385       .  S
O2926     Zr2935   2.382       .  S
O2926      H2951   0.966       .  S
O2930      H2966   0.990       .  S
O2931      C2933   1.287       .  A
O2934     Zr2935   2.443       .  S
O2934      H2963   0.991       .  S
Zr2935     O2938   2.439       .  S
Zr2935     O2939   2.442       .  S
Zr2935     O2940   2.393       .  S
O2936      C2941   1.281       .  A
O2937      H2954   0.990       .  S
O2937      H2969   0.990       .  S
O2938      H2955   0.990       .  S
O2939      H2959   0.990       .  S
O2939      H2968   0.990       .  S
O2940      C2941   1.276       .  A
O2942      H2961   0.990       .  S
O2942      H2965   0.991       .  S
O2943      H2957   0.990       .  S
O2943      H2964   0.990       .  S
O2944      C2948   1.284       .  A
O2945      C2948   1.284       .  A
O2947      H2960   0.990       .  S
H2956      O3540   0.990       .  S
C2971      C2972   1.407       .  A
C2971      C2976   1.405       .  A
C2971      C3455   1.474       .  S
C2972      H2977   1.084       .  S
C2973      C2974   1.395       .  A
C2973      C2998   1.474       .  S
C2974      H2978   1.085       .  S
C2975      C2976   1.405       .  A
C2975      C3059   1.459       .  S
C2976      H2979   1.084       .  S
C2980      C2981   1.390       .  A
C2980      C2985   1.421       .  A
C2980      C3457   1.478       .  S
C2981      C2982   1.392       .  A
C2981      H2986   1.085       .  S
C2982      C2983   1.390       .  A
C2982      C3000   1.445       .  S
C2983      C2984   1.398       .  A
C2983      H2987   1.085       .  S
C2984      C2985   1.415       .  A
C2984      C3060   1.473       .  S
C2985      H2988   1.083       .  S
C2989      C2994   1.404       .  A
C2989      C3061   1.476       .  S
C2990      C2991   1.398       .  A
C2990      H2995   1.084   1_545  S
C2991      C3456   1.453   1_545  S
C2992      C2993   1.394       .  A
C2992      H2996   1.085       .  S
C2993      C2994   1.406       .  A
C2993      C3002   1.464       .  S
C2994      H2997   1.084       .  S
C2998      N2999   1.360       .  A
C2998      N3003   1.370       .  A
N2999      C3000   1.352       .  A
C3000      N3001   1.342       .  A
N3001      C3002   1.341       .  A
C3002      N3003   1.363       .  A
C3004      C3009   1.393       .  A
C3004      C3080   1.474       .  S
C3005      C3006   1.414       .  A
C3005      H3010   1.083       .  S
C3006      C3172   1.485       .  S
C3007      C3008   1.403       .  A
C3007      H3011   1.084       .  S
C3008      C3009   1.389       .  A
C3008      C3024   1.465       .  S
C3009      H3012   1.085       .  S
C3013      C3014   1.408       .  A
C3013      C3018   1.394       .  A
C3013      C3065   1.456       .  S
C3014      C3015   1.404       .  A
C3014      H3019   1.084       .  S
C3015      C3016   1.403       .  A
C3015      C3026   1.481       .  S
C3016      C3017   1.406       .  A
C3016      H3020   1.085       .  S
C3017      C3018   1.393       .  A
C3017      C3164   1.454       .  S
C3018      H3021   1.084       .  S
C3022      C3032   1.465       .  S
C3022      N3023   1.354       .  A
C3022      N3027   1.362       .  A
N3023      C3024   1.353       .  A
C3024      N3025   1.362       .  A
N3025      C3026   1.359       .  A
C3026      N3027   1.360       .  A
C3028      C3029   1.402       .  A
C3028      C3033   1.409       .  A
C3028      C3073   1.477       .  S
C3029      C3030   1.406       .  A
C3029      H3034   1.084       .  S
C3030      C3031   1.396       .  A
C3030      C3179   1.461       .  S
C3031      C3032   1.392       .  A
C3031      H3035   1.085       .  S
C3032      C3033   1.406       .  A
C3033      H3036   1.084       .  S
Zr3037     O3038   2.445       .  S
Zr3037     O3047   2.413       .  S
Zr3037     O3048   2.405       .  S
O3038      H3094   0.990   1_565  S
O3038      H3102   0.991       .  S
O3039      C3059   1.283       .  A
O3040      C3061   1.285       .  A
O3041     Zr3051   2.459   1_554  S
O3041      C3060   1.288       .  A
O3042     Zr3050   2.426   1_554  S
O3042      C3061   1.284       .  A
O3043      C3060   1.282       .  A
O3044     Zr3052   2.389       .  S
O3044      C3059   1.275       .  A
O3045     Zr3050   2.401   1_554  S
O3045     Zr3052   2.379       .  S
O3046     Zr3052   2.378       .  S
O3047     Zr3067   2.381   1_554  S
O3047      H3084   0.964       .  S
O3048     Zr3067   2.390   1_554  S
Zr3049     O3074   2.443       .  S
Zr3049     O3055   2.397       .  S
Zr3049     O3056   2.415       .  S
Zr3049     O3064   2.432       .  S
Zr3050     O3069   2.436       .  S
Zr3050     O3062   2.434   1_556  S
Zr3050     O3056   2.399       .  S
Zr3050     O3063   2.436       .  S
Zr3051     O3053   2.437       .  S
Zr3051     O3075   2.438   1_556  S
Zr3051     O3077   2.455       .  S
Zr3052     O3079   2.435   1_554  S
Zr3052     O3054   2.437   1_554  S
Zr3052     O3055   2.376   1_554  S
Zr3052     O3056   2.374   1_554  S
O3053      H3090   0.990       .  S
O3054      H3085   0.990   1_556  S
O3054      H3099   0.990   1_556  S
O3056      H3082   0.963       .  S
O3057     Zr3067   2.385       .  S
O3058     Zr3067   2.390       .  S
O3058      H3083   0.965       .  S
O3062      H3098   0.990       .  S
O3063      C3065   1.284       .  A
O3064      C3065   1.281       .  A
O3066     Zr3067   2.441   1_554  S
O3066      H3095   0.990       .  S
Zr3067     O3070   2.438   1_556  S
Zr3067     O3071   2.444       .  S
Zr3067     O3072   2.402       .  S
O3068      C3073   1.288       .  A
O3069      H3086   0.990       .  S
O3070      H3087   0.990   1_554  S
O3071      H3091   0.991       .  S
O3072      C3073   1.276       .  A
O3074      H3093   0.991       .  S
O3074      H3097   0.990       .  S
O3075      H3089   0.990       .  S
O3075      H3096   0.990       .  S
O3077      C3080   1.291       .  A
O3079      H3092   0.990       .  S
C3103      C3104   1.391       .  A
C3103      C3108   1.425       .  A
C3103      C3259   1.483       .  S
C3104      C3105   1.391       .  A
C3105      C3106   1.396       .  A
C3106      C3107   1.401       .  A
C3106      H3110   1.085   1_655  S
C3107      C3108   1.419       .  A
C3107      C3158   1.486       .  S
C3108      H3111   1.083       .  S
C3112      C3113   1.402       .  A
C3112      C3117   1.403       .  A
C3113      C3114   1.409       .  A
C3113      H3118   1.084       .  S
C3114      C3115   1.394       .  A
C3114      C3160   1.459       .  S
C3115      C3116   1.392       .  A
C3115      H3119   1.085       .  S
C3116      C3117   1.399       .  A
C3116      C3130   1.458       .  S
C3121      C3122   1.397       .  A
C3121      C3126   1.399       .  A
C3121      C3258   1.449       .  S
C3122      C3123   1.397       .  A
C3122      H3127   1.084       .  S
C3123      C3124   1.398       .  A
C3123      C3159   1.453       .  S
C3124      C3125   1.398       .  A
C3125      C3126   1.397       .  A
C3125      C3132   1.458       .  S
C3126      H3129   1.085       .  S
C3130      N3131   1.359       .  A
C3130      N3135   1.355       .  A
N3131      C3132   1.354       .  A
C3132      N3133   1.350       .  A
N3133      C3134   1.353       .  A
C3134      N3135   1.354       .  A
Zr3136     O3137   2.442       .  S
Zr3136     O3144   2.376       .  S
Zr3136     O3145   2.383       .  S
Zr3136     O3146   2.418       .  S
Zr3136     O3147   2.408       .  S
Zr3136     O3138   2.469       .  S
Zr3136     O3139   2.424       .  S
Zr3136     O3142   2.417       .  S
O3137      H3193   0.990       .  S
O3137      H3201   0.991       .  S
O3138      C3158   1.287       .  A
O3139      C3160   1.280       .  A
O3140     Zr3150   2.431       .  S
O3140      C3159   1.284       .  A
O3141     Zr3149   2.424       .  S
O3141      C3160   1.284       .  A
O3143     Zr3151   2.421       .  S
O3143      C3158   1.280       .  A
O3144     Zr3149   2.404       .  S
O3144     Zr3151   2.383       .  S
O3145     Zr3151   2.375       .  S
O3145      H3180   0.966       .  S
O3146     Zr3149   2.397       .  S
O3146     Zr3166   2.381       .  S
O3146      H3183   0.963       .  S
O3147     Zr3166   2.385       .  S
Zr3148     O3173   2.443       .  S
Zr3148     O3154   2.408       .  S
Zr3148     O3155   2.419       .  S
Zr3148     O3156   2.374       .  S
Zr3148     O3157   2.381       .  S
Zr3148     O3167   2.480       .  S
Zr3148     O3163   2.429       .  S
Zr3149     O3168   2.438       .  S
Zr3149     O3161   2.436       .  S
Zr3149     O3155   2.398       .  S
Zr3149     O3156   2.400       .  S
Zr3149     O3162   2.427       .  S
Zr3150     O3152   2.437       .  S
Zr3150     O3174   2.437       .  S
Zr3150     O3176   2.425       .  S
Zr3151     O3177   2.436   1_655  S
Zr3151     O3178   2.437       .  S
Zr3151     O3153   2.438       .  S
Zr3151     O3154   2.397       .  S
Zr3151     O3155   2.388       .  S
O3152      H3189   0.990       .  S
O3153      H3184   0.990       .  S
O3153      H3198   0.990       .  S
O3155      H3181   0.964       .  S
O3156     Zr3166   2.385       .  S
O3157     Zr3166   2.378       .  S
O3157      H3182   0.966       .  S
O3161      H3197   0.990       .  S
O3162      C3164   1.282       .  A
O3163      C3164   1.280       .  A
O3165     Zr3166   2.439       .  S
Zr3166     O3169   2.438       .  S
Zr3166     O3170   2.442       .  S
Zr3166     O3171   2.407       .  S
O3167      C3172   1.290       .  A
O3168      H3185   0.990       .  S
O3168      H3200   0.990       .  S
O3170      H3190   0.990       .  S
O3170      H3199   0.990   1_655  S
O3171      C3172   1.278       .  A
O3173      H3192   0.991       .  S
O3173      H3196   0.990       .  S
O3174      H3188   0.990       .  S
O3174      H3195   0.990       .  S
O3175      C3179   1.279       .  A
O3176      C3179   1.284       .  A
O3177      H3187   0.990   1_455  S
O3178      H3191   0.990       .  S
C3202      C3203   1.412       .  A
C3202      C3207   1.404       .  A
C3202      C3370   1.479       .  S
C3203      C3204   1.408       .  A
C3203      H3208   1.084       .  S
C3204      C3205   1.396       .  A
C3204      C3229   1.479       .  S
C3205      C3206   1.401       .  A
C3205      H3209   1.085       .  S
C3206      C3207   1.403       .  A
C3206      C3271   1.460       .  S
C3207      H3210   1.084       .  S
C3211      C3212   1.404       .  A
C3211      C3216   1.402       .  A
C3211      C3278   1.471       .  S
C3212      C3213   1.393       .  A
C3212      H3217   1.084       .  S
C3213      C3214   1.410       .  A
C3213      C3362   1.462       .  S
C3214      C3215   1.403       .  A
C3214      H3218   1.084       .  S
C3215      C3216   1.404       .  A
C3216      H3219   1.084       .  S
C3220      C3225   1.413       .  A
C3221      H3226   1.085       .  S
C3222      C3223   1.400       .  A
C3222      C3233   1.462       .  S
C3223      C3224   1.409       .  A
C3223      H3227   1.084       .  S
C3224      C3225   1.408       .  A
C3224      C3263   1.474       .  S
C3229      N3230   1.371       .  A
C3229      N3234   1.362       .  A
N3230      C3231   1.365       .  A
C3231      N3232   1.349       .  A
N3232      C3233   1.350       .  A
C3233      N3234   1.356       .  A
Zr3235     O3236   2.447       .  S
Zr3235     O3243   2.385       .  S
Zr3235     O3244   2.386       .  S
Zr3235     O3245   2.415       .  S
Zr3235     O3246   2.402       .  S
Zr3235     O3237   2.460       .  S
Zr3235     O3238   2.433       .  S
Zr3235     O3241   2.411       .  S
O3236      H3292   0.991       .  S
O3236      H3300   0.990       .  S
O3237      C3257   1.286       .  A
O3238      C3259   1.280       .  A
O3239     Zr3249   2.429       .  S
O3239      C3258   1.282       .  A
O3240     Zr3248   2.476       .  S
O3240      C3259   1.296       .  A
O3241      C3258   1.278       .  A
O3243     Zr3248   2.407       .  S
O3243     Zr3250   2.393       .  S
O3244     Zr3249   2.394       .  S
O3244     Zr3250   2.378       .  S
O3244      H3279   0.966       .  S
O3245     Zr3248   2.397       .  S
O3245     Zr3265   2.365       .  S
O3245      H3282   0.963       .  S
O3246     Zr3249   2.386       .  S
O3246     Zr3265   2.386       .  S
Zr3247     O3272   2.447       .  S
Zr3247     O3253   2.401       .  S
Zr3247     O3254   2.413       .  S
Zr3247     O3255   2.379       .  S
Zr3247     O3256   2.382       .  S
Zr3247     O3266   2.448       .  S
Zr3247     O3274   2.419       .  S
Zr3247     O3262   2.438       .  S
Zr3248     O3267   2.435       .  S
Zr3248     O3254   2.406       .  S
Zr3248     O3255   2.403       .  S
Zr3249     O3251   2.435       .  S
Zr3249     O3273   2.443       .  S
Zr3249     O3253   2.391       .  S
Zr3249     O3256   2.398       .  S
Zr3249     O3275   2.423       .  S
Zr3250     O3276   2.437       .  S
Zr3250     O3253   2.385       .  S
Zr3250     O3254   2.375       .  S
O3251      H3288   0.990       .  S
O3252      H3283   0.991       .  S
O3252      H3297   0.990       .  S
O3255     Zr3265   2.385       .  S
O3256     Zr3265   2.376       .  S
O3256      H3281   0.966       .  S
O3260      H3296   0.990       .  S
O3261      C3263   1.291       .  A
O3264     Zr3265   2.439       .  S
O3264      H3293   0.990       .  S
Zr3265     O3268   2.438       .  S
Zr3265     O3269   2.439       .  S
Zr3265     O3270   2.384       .  S
O3266      C3271   1.283       .  A
O3267      H3284   0.990       .  S
O3267      H3299   0.990       .  S
O3268      H3285   0.990       .  S
O3269      H3289   0.990       .  S
O3269      H3298   0.990       .  S
O3270      C3271   1.274       .  A
O3272      H3291   0.991       .  S
O3273      H3287   0.990       .  S
O3273      H3294   0.990       .  S
O3274      C3278   1.282       .  A
O3275      C3278   1.283       .  A
O3277      H3290   0.990       .  S
C3301      C3302   1.404       .  A
C3301      C3306   1.406       .  A
C3301      C3356   1.470       .  S
C3302      C3303   1.404       .  A
C3302      H3307   1.084       .  S
C3303      C3304   1.400       .  A
C3303      C3535   1.460       .  S
C3304      C3305   1.395       .  A
C3304      H3308   1.085       .  S
C3305      C3306   1.403       .  A
C3305      C3328   1.471       .  S
C3306      H3309   1.084       .  S
C3310      C3311   1.407       .  A
C3310      C3315   1.402       .  A
C3310      C3527   1.476       .  S
C3311      C3312   1.396       .  A
C3312      C3313   1.400       .  A
C3312      C3357   1.456       .  S
C3313      C3314   1.396       .  A
C3313      H3317   1.085       .  S
C3314      C3315   1.406       .  A
C3314      C3332   1.463       .  S
C3315      H3318   1.084       .  S
C3319      C3320   1.417       .  A
C3319      C3358   1.476       .  S
C3320      C3321   1.411       .  A
C3320      H3325   1.083       .  S
C3321      C3542   1.470       .  S
C3322      C3323   1.392   1_545  A
C3322      H3326   1.085       .  S
C3323      C3324   1.393       .  A
C3323      C3330   1.448       .  S
C3324      H3327   1.085       .  S
C3328      N3329   1.360       .  A
C3328      N3333   1.369       .  A
N3329      C3330   1.352       .  A
C3330      N3331   1.344       .  A
N3331      C3332   1.342       .  A
C3332      N3333   1.362       .  A
Zr3334     O3335   2.445       .  S
Zr3334     O3342   2.375       .  S
Zr3334     O3343   2.387       .  S
Zr3334     O3344   2.420       .  S
Zr3334     O3345   2.405       .  S
Zr3334     O3336   2.469       .  S
Zr3334     O3337   2.431       .  S
Zr3334     O3340   2.413       .  S
O3335      H3391   0.991       .  S
O3335      H3399   0.991       .  S
O3337      C3358   1.281       .  A
O3338     Zr3348   2.444       .  S
O3338      C3357   1.286       .  A
O3339     Zr3347   2.457       .  S
O3340      C3357   1.279       .  A
O3341     Zr3349   2.390       .  S
O3341      C3356   1.274       .  A
O3343     Zr3348   2.406       .  S
O3343      H3378   0.967       .  S
O3344     Zr3364   2.370       .  S
O3344      H3381   0.962       .  S
O3345     Zr3348   2.381       .  S
O3345     Zr3364   2.383       .  S
Zr3346     O3352   2.397       .  S
Zr3346     O3354   2.378       .  S
Zr3346     O3355   2.387       .  S
Zr3346     O3365   2.477       .  S
Zr3346     O3373   2.429       .  S
Zr3347     O3359   2.435       .  S
Zr3347     O3353   2.402       .  S
Zr3347     O3360   2.454       .  S
Zr3348     O3350   2.435       .  S
Zr3348     O3352   2.369       .  S
Zr3348     O3355   2.404       .  S
Zr3348     O3374   2.461       .  S
Zr3349     O3375   2.435       .  S
Zr3349     O3376   2.436       .  S
Zr3349     O3351   2.439       .  S
O3350      H3387   0.990       .  S
O3351      H3382   0.990       .  S
O3351      H3396   0.990       .  S
O3353      H3379   0.962       .  S
O3354     Zr3364   2.391       .  S
O3355     Zr3364   2.383       .  S
O3355      H3380   0.965       .  S
O3359      H3395   0.990       .  S
O3360      C3362   1.288       .  A
O3361      C3362   1.281       .  A
O3363     Zr3364   2.440       .  S
O3363      H3392   0.990       .  S
Zr3364     O3367   2.440       .  S
Zr3364     O3368   2.440       .  S
Zr3364     O3369   2.393       .  S
O3365      C3370   1.289       .  A
O3366      H3398   0.990       .  S
O3367      H3384   0.990       .  S
O3368      H3388   0.990       .  S
O3368      H3397   0.990       .  S
O3369      C3370   1.274       .  A
O3371      H3394   0.990       .  S
O3372      H3386   0.990       .  S
O3372      H3393   0.990       .  S
O3373      C3377   1.281       .  A
O3374      C3377   1.293       .  A
O3375      H3385   0.990       .  S
O3376      H3389   0.990       .  S
C3400      C3401   1.409       .  A
C3400      C3405   1.406   1_565  A
C3400      C3469   1.480       .  S
C3401      C3402   1.406   1_565  A
C3401      H3406   1.084       .  S
C3403      C3404   1.401       .  A
C3404      C3521   1.466       .  S
C3405      H3408   1.084       .  S
C3409      C3410   1.404       .  A
C3409      C3414   1.404       .  A
C3409      C3522   1.474       .  S
C3410      C3411   1.392       .  A
C3410      H3415   1.084       .  S
C3411      C3412   1.409       .  A
C3411      C3461   1.462       .  S
C3412      C3413   1.403       .  A
C3412      H3416   1.084       .  S
C3413      C3414   1.408       .  A
C3413      C3431   1.477       .  S
C3414      H3417   1.084       .  S
C3418      C3419   1.394       .  A
C3418      C3423   1.410       .  A
C3418      C3476   1.468       .  S
C3419      C3420   1.392       .  A
C3419      H3424   1.085       .  S
C3420      C3421   1.398       .  A
C3420      C3429   1.460       .  S
C3421      C3422   1.407       .  A
C3421      H3425   1.085       .  S
C3422      C3423   1.404       .  A
C3422      C3523   1.467       .  S
C3423      H3426   1.084       .  S
C3427      N3432   1.371       .  A
N3428      C3429   1.354       .  A
N3430      C3431   1.348       .  A
C3431      N3432   1.365       .  A
Zr3433     O3434   2.447       .  S
Zr3433     O3441   2.379       .  S
Zr3433     O3442   2.384       .  S
Zr3433     O3443   2.422       .  S
Zr3433     O3444   2.407       .  S
Zr3433     O3435   2.472       .  S
Zr3433     O3436   2.425       .  S
Zr3433     O3439   2.412       .  S
O3434      H3490   0.991       .  S
O3434      H3498   0.991       .  S
O3435      C3455   1.288       .  A
O3436      C3457   1.279       .  A
O3437     Zr3447   2.441       .  S
O3437      C3456   1.286       .  A
O3438     Zr3446   2.472       .  S
O3438      C3457   1.296       .  A
O3439      C3456   1.278       .  A
O3440     Zr3448   2.389       .  S
O3440      C3455   1.274       .  A
O3441     Zr3446   2.406       .  S
O3441     Zr3448   2.391       .  S
O3442     Zr3447   2.401       .  S
O3442     Zr3448   2.378       .  S
O3442      H3477   0.966       .  S
O3443     Zr3446   2.395       .  S
O3443     Zr3463   2.370       .  S
O3443      H3480   0.962       .  S
O3444     Zr3447   2.379       .  S
O3444     Zr3463   2.385       .  S
Zr3445     O3470   2.445       .  S
Zr3445     O3451   2.400       .  S
Zr3445     O3452   2.418       .  S
Zr3445     O3453   2.380       .  S
Zr3445     O3454   2.383       .  S
Zr3445     O3464   2.474       .  S
Zr3445     O3472   2.424       .  S
Zr3445     O3460   2.430       .  S
Zr3446     O3465   2.436       .  S
Zr3446     O3458   2.434       .  S
Zr3446     O3452   2.405       .  S
Zr3446     O3453   2.409       .  S
Zr3446     O3459   2.458       .  S
Zr3447     O3449   2.436   1_565  S
Zr3447     O3471   2.436       .  S
Zr3447     O3451   2.373       .  S
Zr3447     O3454   2.402       .  S
Zr3447     O3473   2.437       .  S
Zr3448     O3474   2.434       .  S
Zr3448     O3475   2.436       .  S
Zr3448     O3450   2.439       .  S
Zr3448     O3451   2.377       .  S
Zr3448     O3452   2.366       .  S
O3450      H3481   0.990       .  S
O3450      H3495   0.990       .  S
O3452      H3478   0.962       .  S
O3453     Zr3463   2.389       .  S
O3454     Zr3463   2.379       .  S
O3454      H3479   0.966       .  S
O3458      H3494   0.990       .  S
O3459      C3461   1.289       .  A
O3460      C3461   1.281       .  A
O3462     Zr3463   2.439       .  S
Zr3463     O3466   2.437       .  S
Zr3463     O3468   2.398       .  S
O3464      C3469   1.288       .  A
O3465      H3482   0.990       .  S
O3465      H3497   0.990       .  S
O3466      H3483   0.990       .  S
O3467      H3487   0.990       .  S
O3467      H3496   0.990       .  S
O3468      C3469   1.275       .  A
O3470      H3489   0.992       .  S
O3470      H3493   0.989       .  S
O3471      H3485   0.990       .  S
O3471      H3492   0.990       .  S
O3472      C3476   1.281       .  A
O3473      C3476   1.288       .  A
O3474      H3484   0.990       .  S
O3475      H3488   0.990       .  S
Zr3499     O3500   2.443       .  S
Zr3499     O3507   2.379       .  S
Zr3499     O3508   2.386       .  S
Zr3499     O3509   2.409       .  S
Zr3499     O3510   2.404       .  S
Zr3499     O3501   2.449       .  S
Zr3499     O3505   2.419       .  S
O3500      H3556   0.990       .  S
O3500      H3564   0.991       .  S
O3501      C3521   1.284       .  A
O3502      C3523   1.283       .  A
O3503     Zr3513   2.432       .  S
O3503      C3522   1.285       .  A
O3504      C3523   1.287       .  A
O3505      C3522   1.282       .  A
O3506     Zr3514   2.403       .  S
O3506      C3521   1.277       .  A
O3507     Zr3512   2.405   1_655  S
O3507     Zr3514   2.391       .  S
O3508     Zr3513   2.403       .  S
O3508     Zr3514   2.375       .  S
O3508      H3543   0.967       .  S
O3509     Zr3512   2.400   1_655  S
O3509     Zr3529   2.371       .  S
O3509      H3546   0.962       .  S
O3510     Zr3513   2.392       .  S
O3510     Zr3529   2.390       .  S
Zr3511     O3536   2.443       .  S
Zr3511     O3517   2.401       .  S
Zr3511     O3518   2.410       .  S
Zr3511     O3519   2.380       .  S
Zr3511     O3520   2.385       .  S
Zr3511     O3530   2.444       .  S
Zr3511     O3538   2.439       .  S
Zr3511     O3526   2.425       .  S
Zr3512     O3518   2.403   1_455  S
Zr3512     O3519   2.401   1_455  S
Zr3513     O3515   2.435       .  S
Zr3513     O3537   2.437       .  S
Zr3513     O3517   2.391       .  S
Zr3513     O3520   2.397       .  S
Zr3513     O3539   2.442       .  S
Zr3514     O3540   2.438       .  S
Zr3514     O3541   2.436       .  S
Zr3514     O3516   2.437       .  S
Zr3514     O3517   2.386       .  S
Zr3514     O3518   2.384       .  S
O3515      H3552   0.990       .  S
O3516      H3547   0.990       .  S
O3518      H3544   0.964       .  S
O3519     Zr3529   2.384       .  S
O3520     Zr3529   2.381       .  S
O3520      H3545   0.966       .  S
O3524      H3560   0.990       .  S
O3525      C3527   1.287       .  A
O3528     Zr3529   2.441       .  S
O3528      H3557   0.990       .  S
Zr3529     O3532   2.439       .  S
Zr3529     O3533   2.438       .  S
Zr3529     O3534   2.397       .  S
O3530      C3535   1.283       .  A
O3531      H3548   0.990       .  S
O3531      H3563   0.990       .  S
O3532      H3549   0.990       .  S
O3533      H3553   0.990       .  S
O3533      H3562   0.990       .  S
O3534      C3535   1.276       .  A
O3536      H3555   0.990       .  S
O3536      H3559   0.991       .  S
O3537      H3551   0.990       .  S
O3537      H3558   0.990       .  S
O3538      C3542   1.283       .  A
O3539      C3542   1.284       .  A
O3541      H3554   0.990       .  S
