geometry optimzed in LAMMPS
_audit_creation_date              2020-12-01 
_audit_creation_method            'lammps2cif' 
_symmetry_space_group_name_H-M    'P1' 
_symmetry_Int_Tables_number       1 
_symmetry_cell_setting            triclinic 
loop_ 
_symmetry_equiv_pos_as_xyz 
  x,y,z 
_cell_length_a                    59.08639236 
_cell_length_b                    58.98144230967565 
_cell_length_c                    44.77471444242221 
_cell_angle_alpha                 90.1746129365487 
_cell_angle_beta                  90.07319486932136 
_cell_angle_gamma                 90.68517873243329 
loop_ 
_atom_site_label 
_atom_site_type_symbol 
_atom_site_fract_x 
_atom_site_fract_y 
_atom_site_fract_z 
_atom_site_charge 
N1          N  0.99068486  0.78604874  0.47188653    -0.03300
C2          C  0.99405146  0.76378710  0.46595577    -0.00800
C3          C  0.99839912  0.75318510  0.00572437    -0.23600
C4          C  0.99577641  0.77013801  0.02644360    -0.23800
C5          C  0.99134959  0.78964442  0.01061237    -0.00900
H6          H  0.00172508  0.73554555  0.01042522     0.12900
H7          H  0.99737359  0.76852893  0.05042447     0.13000
N8          N  0.00874894  0.26502199  0.99787178    -0.03300
C9          C  0.01292521  0.28774594  0.99836086    -0.00800
C10         C  0.01531773  0.29628794  0.47971021    -0.23600
C11         C  0.00887987  0.27983886  0.45961449    -0.23800
C12         C  0.00783869  0.25963546  0.47514837    -0.00900
H13         H  0.01709833  0.31424456  0.47524019     0.12900
H14         H  0.00546332  0.28230573  0.43610050     0.13000
N15         N  0.74249823  0.02016105  0.47898352    -0.03300
C16         C  0.76236539  0.03062034  0.47200205    -0.00800
C17         C  0.77514749  0.02880624  0.99960959    -0.23600
C18         C  0.75975741  0.02496257  0.02208776    -0.23800
C19         C  0.74144144  0.01393262  0.00915699    -0.00900
H20         H  0.79159114  0.03691502  0.00186658     0.12900
H21         H  0.76153840  0.03000884  0.04523834     0.13000
N22         N  0.27383725  0.00074677  0.03174957    -0.03300
C23         C  0.25278988  0.00989291  0.03155991    -0.00800
C24         C  0.24335297  0.00731285  0.49905326    -0.23600
C25         C  0.25922426  0.99759471  0.48097602    -0.23800
C26         C  0.27744218  0.99232234  0.49895658    -0.00900
H27         H  0.22671968  0.01283367  0.49227589     0.12900
H28         H  0.25774926  0.99488569  0.45712884     0.13000
N29         N  0.48705002  0.71894910  0.49482022    -0.03300
C30         C  0.49230409  0.74129129  0.49162759    -0.00800
C31         C  0.49034321  0.75369942  0.01756364    -0.23600
C32         C  0.48474461  0.73829758  0.03928241    -0.23800
C33         C  0.48452926  0.71722709  0.02573437    -0.00900
H34         H  0.49194307  0.77187843  0.02041188     0.12900
H35         H  0.48175143  0.74199030  0.06262862     0.13000
N36         N  0.49545363  0.24279403  0.02157688    -0.03300
C37         C  0.50029622  0.22031224  0.02262210    -0.00800
C38         C  0.49354049  0.21050422  0.49212011    -0.23600
C39         C  0.49003222  0.22834912  0.47320451    -0.23800
C40         C  0.48765288  0.24733876  0.49098579    -0.00900
H41         H  0.49618709  0.19305512  0.48558221     0.12900
H42         H  0.49007998  0.22769428  0.44904469     0.13000
N43         N  0.23120059  0.51048322  0.00738947    -0.03300
C44         C  0.25299595  0.50376330  0.01061575    -0.00800
C45         C  0.26489556  0.50832336  0.48293971    -0.23600
C46         C  0.24985445  0.51784368  0.46352370    -0.23800
C47         C  0.22930327  0.51879493  0.47817914    -0.00900
H48         H  0.28270091  0.50560026  0.47879702     0.12900
H49         H  0.25344558  0.52315031  0.44088304     0.13000
N50         N  0.75379181  0.49686369  0.47298082    -0.03300
C51         C  0.73254073  0.48788953  0.47108092    -0.00800
C52         C  0.72384381  0.48929893  0.99803618    -0.23600
C53         C  0.73993715  0.49585806  0.01852774    -0.23800
C54         C  0.75891704  0.50225307  0.00249115    -0.00900
H55         H  0.70680871  0.48345669  0.00287242     0.12900
H56         H  0.73818115  0.49553291  0.04258239     0.13000
O57         O  0.46810081  0.49233728  0.20721058    -0.88200
C58         C  0.45717056  0.51950040  0.28986790     0.87800
Mg59       Mg  0.46081480  0.45785250  0.19596420     1.58100
O60         O  0.51422330  0.50915281  0.27378222    -0.87900
O61         O  0.49759109  0.51529111  0.20747046    -0.75300
C62         C  0.50222298  0.40045341  0.30996913     0.92900
O63         O  0.42939712  0.47951370  0.25437240    -0.75100
O64         O  0.48871939  0.39852121  0.28797578    -0.82600
Mg65       Mg  0.44182953  0.51107503  0.22898218     1.58000
C66         C  0.55612734  0.47871822  0.33316596     0.92800
O67         O  0.45118835  0.54354016  0.20289290    -0.80900
H68         H  0.54157281  0.51420044  0.24827811    -0.06200
C69         C  0.48110441  0.46073844  0.32088680     0.87700
O70         O  0.49807230  0.44857171  0.20375975    -0.75400
O71         O  0.46512159  0.51940036  0.26430665    -0.88100
O72         O  0.54324291  0.49584585  0.33086812    -0.80900
C73         C  0.50541186  0.55860138  0.31990884     0.92900
C74         C  0.46382423  0.56113422  0.20556453     0.92800
Mg75       Mg  0.52432231  0.45041247  0.28775315     1.58000
O76         O  0.51404350  0.41839187  0.31436870    -0.80900
O77         O  0.53747627  0.48173587  0.26237692    -0.75100
O78         O  0.49768164  0.55863098  0.29325422    -0.80900
O79         O  0.41585176  0.50189530  0.19317921    -0.82700
O80         O  0.47115405  0.40313850  0.22080479    -0.81000
C81         C  0.53156257  0.50237660  0.26128461     0.87200
O82         O  0.50153071  0.44264598  0.25180945    -0.88100
O83         O  0.49804757  0.46925354  0.30886453    -0.88200
O84         O  0.46884512  0.44581026  0.30783442    -0.75300
Mg85       Mg  0.49656142  0.53534596  0.25147165     1.58000
O86         O  0.51239615  0.54053690  0.33219285    -0.82700
H87         H  0.48928712  0.49480272  0.17258039    -0.06400
O88         O  0.45224026  0.45201496  0.24171341    -0.87900
H89         H  0.42538166  0.44696109  0.26809861    -0.06200
H90         H  0.52724118  0.43848703  0.22339246    -0.06400
C91         C  0.43518352  0.45881932  0.25487464     0.87200
C92         C  0.48487555  0.50068386  0.19468819     0.87800
C93         C  0.50965837  0.44281189  0.22637243     0.87800
H94         H  0.47625816  0.46656580  0.34285863    -0.06400
O95         O  0.46870680  0.51345624  0.31240973    -0.75400
Mg96       Mg  0.47057579  0.42593159  0.26338593     1.58000
H97         H  0.43969977  0.52419668  0.29299883    -0.06400
C98         C  0.41089160  0.48283173  0.18124181     0.92800
O99         O  0.45444116  0.42102535  0.18320343    -0.82600
C100        C  0.46280419  0.40317253  0.19447219     0.92900
O101        O  0.47888930  0.56277925  0.22582480    -0.82600
Mg102      Mg  0.50588593  0.50376567  0.31977061     1.58200
O103        O  0.42403047  0.46589818  0.18327268    -0.80900
O104        O  0.55002293  0.45920151  0.32371297    -0.82600
O105        O  0.52118758  0.99382457  0.20705732    -0.88200
C106        C  0.55401024  0.00522422  0.28530006     0.87800
Mg107      Mg  0.48705509  0.00454258  0.20050288     1.58100
O108        O  0.53737240  0.94859037  0.27417060    -0.87900
O109        O  0.54095539  0.96252981  0.20620846    -0.75300
C110        C  0.43389549  0.97064428  0.32429271     0.92900
O111        O  0.51605041  0.03506053  0.25319323    -0.75100
O112        O  0.43124155  0.98448167  0.30277572    -0.82600
Mg113      Mg  0.54408480  0.01886429  0.22484395     1.58000
C114        C  0.50703725  0.91128011  0.34016799     0.92800
O115        O  0.57362300  0.00612303  0.19555210    -0.80900
H116        H  0.53761631  0.92051573  0.24904022    -0.06200
C117        C  0.49597327  0.98651654  0.32561581     0.87700
O118        O  0.47394442  0.96849675  0.21104255    -0.75400
O119        O  0.55178709  0.99633068  0.26038334    -0.88100
O120        O  0.52502093  0.92301472  0.33577328    -0.80900
C121        C  0.58992286  0.95681340  0.31463295     0.92900
C122        C  0.59033006  0.99271835  0.19776013     0.92800
Mg123      Mg  0.47899970  0.94365789  0.29519496     1.58000
O124        O  0.45051754  0.95706839  0.32515664    -0.80900
O125        O  0.50688000  0.92768840  0.26662309    -0.75100
O126        O  0.58867514  0.96324395  0.28750760    -0.80900
O127        O  0.53574235  0.04410612  0.18904418    -0.82700
O128        O  0.43314936  0.00041841  0.23292778    -0.81000
C129        C  0.52789483  0.93172081  0.26307339     0.87200
O130        O  0.47072594  0.96645973  0.25978939    -0.88100
O131        O  0.50174845  0.96883842  0.31289710    -0.88200
O132        O  0.48174685  0.99996640  0.31412946    -0.75300
Mg133      Mg  0.56374551  0.96352208  0.24798103     1.58000
O134        O  0.57246730  0.95035004  0.32907844    -0.82700
H135        H  0.51898763  0.97143943  0.17350393    -0.06400
O136        O  0.48547487  0.01419359  0.24651516    -0.87900
H137        H  0.48555152  0.04239421  0.27142021    -0.06200
H138        H  0.46167932  0.94082518  0.23280703    -0.06400
C139        C  0.49509436  0.03106422  0.25734465     0.87200
C140        C  0.52681186  0.97600352  0.19455272     0.87800
C141        C  0.46826840  0.95795136  0.23467050     0.87800
H142        H  0.50377489  0.99100208  0.34670850    -0.06400
O143        O  0.54826425  0.99499622  0.30910706    -0.75400
Mg144      Mg  0.45878500  0.99923600  0.27258180     1.58000
H145        H  0.56035251  0.02246074  0.28678933    -0.06400
C146        C  0.51666091  0.05162837  0.18076638     0.92800
O147        O  0.45081120  0.01461430  0.19299714    -0.82600
C148        C  0.43278979  0.00870068  0.20657190     0.92900
O149        O  0.59152924  0.97820486  0.21867279    -0.82600
Mg150      Mg  0.53580807  0.95893256  0.32022031     1.58200
O151        O  0.49828280  0.04068333  0.18574196    -0.80900
O152        O  0.48782450  0.91781538  0.33082820    -0.82600
O153        O  0.01576782  0.01468689  0.18594266    -0.88200
C154        C  0.02794897  0.98909532  0.26815328     0.87800
Mg155      Mg  0.02331812  0.04903167  0.17458802     1.58100
O156        O  0.97063048  0.99883100  0.25332816    -0.87900
O157        O  0.98635641  0.99161944  0.18665163    -0.75300
C158        C  0.98194049  0.10857703  0.28890081     0.92900
O159        O  0.05478857  0.02807302  0.23224695    -0.75100
O160        O  0.99656875  0.11054165  0.26810397    -0.82600
Mg161      Mg  0.04211680  0.99614040  0.20729773     1.58000
C162        C  0.92978353  0.02986991  0.31435177     0.92800
O163        O  0.03224638  0.96355236  0.18132965    -0.80900
H164        H  0.94338387  0.99355347  0.22759722    -0.06200
C165        C  0.00364707  0.04845330  0.29957219     0.87700
O166        O  0.98612684  0.05865123  0.18243922    -0.75400
O167        O  0.01948946  0.98853813  0.24287842    -0.88100
O168        O  0.94306760  0.01303892  0.31231697    -0.80900
C169        C  0.98141514  0.95024591  0.30028322     0.92900
C170        C  0.01979345  0.94592391  0.18470026     0.92800
Mg171      Mg  0.96009264  0.05798840  0.26613571     1.58000
O172        O  0.96965234  0.09076166  0.29168235    -0.80900
O173        O  0.94747777  0.02617478  0.24124080    -0.75100
O174        O  0.98848159  0.95010583  0.27337122    -0.80900
O175        O  0.06761594  0.00450969  0.17152912    -0.82700
O176        O  0.01389704  0.10501717  0.19861939    -0.81000
C177        C  0.95334661  0.00551079  0.24058630     0.87200
O178        O  0.98278853  0.06607308  0.23028296    -0.88100
O179        O  0.98686317  0.03965026  0.28742246    -0.88200
O180        O  0.01591744  0.06323020  0.28645850    -0.75300
Mg181      Mg  0.98814303  0.97231169  0.23113739     1.58000
O182        O  0.97404727  0.96825418  0.31248119    -0.82700
H183        H  0.99436749  0.01177549  0.15147152    -0.06400
O184        O  0.03192351  0.05573403  0.22020913    -0.87900
H185        H  0.05904011  0.06059133  0.24632653    -0.06200
H186        H  0.95711471  0.06962303  0.20160252    -0.06400
C187        C  0.04904175  0.04879670  0.23313065     0.87200
C188        C  0.99892607  0.00616340  0.17361763     0.87800
C189        C  0.97466700  0.06524931  0.20480033     0.87800
H190        H  0.00840429  0.04292842  0.32168468    -0.06400
O191        O  0.01686269  0.99568776  0.29079180    -0.75400
Mg192      Mg  0.01416102  0.08262848  0.24195399     1.58000
H193        H  0.04551561  0.98460061  0.27088260    -0.06400
C194        C  0.07343491  0.02361120  0.16070616     0.92800
O195        O  0.02953596  0.08542397  0.16149858    -0.82600
C196        C  0.02175296  0.10382983  0.17201505     0.92900
O197        O  0.00552170  0.94435551  0.20586929    -0.82600
Mg198      Mg  0.97982423  0.00509314  0.29910520     1.58200
O199        O  0.06058262  0.04083402  0.16246050    -0.80900
O200        O  0.93461135  0.04894237  0.30250298    -0.82600
O201        O  0.98181315  0.50693259  0.19295659    -0.88200
C202        C  0.95203654  0.49351379  0.27267488     0.87800
Mg203      Mg  0.01631479  0.49926967  0.18316730     1.58100
O204        O  0.96399529  0.55090719  0.25967153    -0.87900
O205        O  0.95888483  0.53598763  0.19261013    -0.75300
C206        C  0.07175184  0.53746737  0.30195538     0.92900
O207        O  0.99208998  0.46687803  0.23868941    -0.75100
O208        O  0.07478536  0.52416941  0.27992738    -0.82600
Mg209      Mg  0.96179819  0.48011678  0.21182231     1.58000
C210        C  0.99519059  0.59019920  0.32365407     0.92800
O211        O  0.93099241  0.49060779  0.18389880    -0.80900
H212        H  0.96111887  0.57860949  0.23436305    -0.06200
C213        C  0.01085523  0.51641349  0.30799371     0.87700
O214        O  0.02665231  0.53629601  0.19242265    -0.75400
O215        O  0.95292007  0.50217515  0.24757257    -0.88100
O216        O  0.97724047  0.57845514  0.31911412    -0.80900
C217        C  0.91411062  0.53980955  0.30439122     0.92900
C218        C  0.91326695  0.50266361  0.18564049     0.92800
Mg219      Mg  0.02313008  0.55995612  0.27692011     1.58000
O220        O  0.05383525  0.54910240  0.30454119    -0.80900
O221        O  0.99282355  0.57370215  0.25042121    -0.75100
O222        O  0.91389266  0.53229875  0.27753054    -0.80900
O223        O  0.97115000  0.45526556  0.17546652    -0.82700
O224        O  0.07074723  0.50811721  0.21106143    -0.81000
C225        C  0.97200634  0.56820699  0.24790652     0.87200
O226        O  0.03170993  0.53825495  0.24080109    -0.88100
O227        O  0.00300155  0.53330745  0.29552302    -0.88200
O228        O  0.02610157  0.50442082  0.29587126    -0.75300
Mg229      Mg  0.93763055  0.53361422  0.23566446     1.58000
O230        O  0.93204117  0.54799041  0.31621799    -0.82700
H231        H  0.98065682  0.52878856  0.15894079    -0.06400
O232        O  0.02085090  0.48962515  0.22883359    -0.87900
H233        H  0.02385148  0.46220929  0.25464102    -0.06200
H234        H  0.03766283  0.56468867  0.21395454    -0.06400
C235        C  0.01290595  0.47242377  0.24092588     0.87200
C236        C  0.97400528  0.52384756  0.18047177     0.87800
C237        C  0.03251090  0.54710138  0.21581951     0.87800
H238        H  0.00422287  0.51142192  0.32951747    -0.06400
O239        O  0.95793498  0.50443020  0.29598081    -0.75400
Mg240      Mg  0.04717598  0.50691224  0.25257219     1.58000
H241        H  0.94675377  0.47597571  0.27474125    -0.06400
C242        C  0.99053248  0.44977986  0.16568229     0.92800
O243        O  0.05296987  0.49282320  0.17187556    -0.82600
C244        C  0.07083686  0.50065833  0.18423913     0.92900
O245        O  0.91028858  0.51650625  0.20717926    -0.82600
Mg246      Mg  0.96856036  0.54140046  0.30525706     1.58200
O247        O  0.00788790  0.46249318  0.16952918    -0.80900
O248        O  0.01433694  0.58399875  0.31394217    -0.82600
C249        C  0.78052304  0.50841070  0.01716755    -0.03100
C250        C  0.78070464  0.52542242  0.03908585    -0.05700
C251        C  0.79935787  0.52830910  0.05792489    -0.20800
C252        C  0.81798565  0.51386419  0.05577926     0.25000
C253        C  0.81834164  0.49758639  0.03263469    -0.18300
C254        C  0.79971530  0.49493804  0.01342535    -0.08300
C255        C  0.83598344  0.51587984  0.07896504    -0.18600
C256        C  0.84956926  0.49872084  0.08692475    -0.23400
C257        C  0.86557577  0.50013909  0.11257605     0.27000
C258        C  0.88475556  0.48636583  0.11249824    -0.20100
C259        C  0.89997675  0.48688143  0.13644051    -0.09800
C260        C  0.89622599  0.50102593  0.16128253    -0.10300
C261        C  0.87674700  0.51447696  0.16166321    -0.03200
C262        C  0.86155774  0.51401191  0.13763510    -0.18400
H263        H  0.76596162  0.53587306  0.04242440     0.10700
H264        H  0.79871070  0.54112548  0.07527886     0.10800
H265        H  0.83267582  0.48659043  0.02963058     0.10500
H266        H  0.79976622  0.48155560  0.99680482     0.11600
H267        H  0.83698057  0.53173857  0.09128642     0.11700
H268        H  0.84890730  0.48285818  0.07461948     0.13600
H269        H  0.88811731  0.47534387  0.09365911     0.10100
H270        H  0.91483540  0.47634199  0.13529502     0.12200
H271        H  0.87328798  0.52549767  0.18045606     0.08800
H272        H  0.84653541  0.52425889  0.13904953     0.11500
C273        C  0.89343795  0.53817973  0.32323933    -0.03100
C274        C  0.89383246  0.54681626  0.35255192    -0.05700
C275        C  0.87544476  0.54354469  0.37165383    -0.20800
C276        C  0.85605632  0.53155983  0.36217323     0.25000
C277        C  0.85531300  0.52339669  0.33252085    -0.18300
C278        C  0.87383932  0.52665813  0.31331671    -0.08300
C279        C  0.83740049  0.52816834  0.38427204    -0.18600
C280        C  0.81883589  0.51498439  0.38002582    -0.23400
C281        C  0.80132366  0.51129985  0.40357219     0.27000
C282        C  0.78799137  0.49141789  0.40270908    -0.20100
C283        C  0.77207941  0.48686281  0.42512413    -0.09800
C284        C  0.76903361  0.50220076  0.44877113    -0.10300
C285        C  0.78169196  0.52248942  0.44907954    -0.03200
C286        C  0.79760274  0.52706363  0.42671738    -0.18400
H287        H  0.90858847  0.55579326  0.36106773     0.10700
H288        H  0.87655840  0.55017846  0.39420854     0.10800
H289        H  0.84066292  0.51440105  0.32392294     0.10500
H290        H  0.87297840  0.51975912  0.29089813     0.11600
H291        H  0.83975423  0.53630865  0.40583044     0.11700
H292        H  0.81684471  0.50543152  0.35947268     0.13600
H293        H  0.79029750  0.47908710  0.38502996     0.10100
H294        H  0.76260934  0.47104767  0.42447445     0.12200
H295        H  0.77923953  0.53481364  0.46670734     0.08800
H296        H  0.80676739  0.54302888  0.42761307     0.11500
C297        C  0.57908660  0.48168032  0.34626612    -0.03100
C298        C  0.58792776  0.50343685  0.35240537    -0.05700
C299        C  0.61000985  0.50620860  0.36329965    -0.20800
C300        C  0.62384670  0.48738390  0.36832305     0.25000
C301        C  0.61487967  0.46557110  0.36240798    -0.18300
C302        C  0.59284440  0.46280759  0.35140915    -0.08300
C303        C  0.64680021  0.49125788  0.38153029    -0.18600
C304        C  0.66285355  0.47526579  0.38362759    -0.23400
C305        C  0.68364641  0.47839441  0.40195543     0.27000
C306        C  0.69167350  0.45977446  0.41804916    -0.20100
C307        C  0.70894884  0.46260029  0.43908629    -0.09800
C308        C  0.71903069  0.48396586  0.44374420    -0.10300
C309        C  0.71240622  0.50225758  0.42593359    -0.03200
C310        C  0.69471904  0.49954674  0.40524098    -0.18400
H311        H  0.57787022  0.51837218  0.34852287     0.10700
H312        H  0.61630931  0.52319851  0.36787428     0.10800
H313        H  0.62447011  0.45045260  0.36667333     0.10500
H314        H  0.58656036  0.44579655  0.34700760     0.11600
H315        H  0.65012885  0.50783098  0.39135830     0.11700
H316        H  0.65984943  0.45849135  0.37441076     0.13600
H317        H  0.68355955  0.44328408  0.41575301     0.10100
H318        H  0.71368877  0.44834301  0.45284709     0.12200
H319        H  0.71931711  0.52376527  0.93043194     0.08800
H320        H  0.68929565  0.51410008  0.39255773     0.11500
C321        C  0.20850489  0.52654612  0.46314911    -0.03100
C322        C  0.21002492  0.54537203  0.44411066    -0.05700
C323        C  0.19274520  0.54995809  0.42391270    -0.20800
C324        C  0.17340729  0.53606543  0.42266509     0.25000
C325        C  0.17110436  0.51805840  0.44307232    -0.18300
C326        C  0.18862361  0.51327326  0.46312736    -0.08300
C327        C  0.15733443  0.53927515  0.39772794    -0.18600
C328        C  0.13514891  0.53452903  0.39977166    -0.23400
C329        C  0.11978043  0.53687185  0.37390226     0.27000
C330        C  0.09776686  0.54462351  0.37855778    -0.20100
C331        C  0.08253250  0.54583338  0.35477659    -0.09800
C332        C  0.08885993  0.53868649  0.32601165    -0.10300
C333        C  0.11101195  0.53109307  0.32127717    -0.03200
C334        C  0.12641273  0.53035646  0.34498305    -0.18400
H335        H  0.22521443  0.55583707  0.44371992     0.10700
H336        H  0.19486188  0.56390630  0.40843323     0.10800
H337        H  0.15653827  0.50677112  0.44220141     0.10500
H338        H  0.18727057  0.49831459  0.47698605     0.11600
H339        H  0.16398259  0.54630494  0.37705953     0.11700
H340        H  0.12790137  0.52968050  0.42113666     0.13600
H341        H  0.09232139  0.54962370  0.40068754     0.10100
H342        H  0.06550564  0.55156080  0.35916992     0.12200
H343        H  0.11630483  0.52538558  0.29938727     0.08800
H344        H  0.14321732  0.52391538  0.34090902     0.11500
C345        C  0.21319618  0.50737789  0.02868181    -0.03100
C346        C  0.20844189  0.48573479  0.04010235    -0.05700
C347        C  0.19054281  0.48238772  0.06004713    -0.20800
C348        C  0.17738560  0.50070130  0.06952965     0.25000
C349        C  0.18229902  0.52248586  0.05827791    -0.18300
C350        C  0.20001002  0.52574570  0.03788560    -0.08300
C351        C  0.15794614  0.49624564  0.08979910    -0.18600
C352        C  0.15049014  0.51142962  0.10993741    -0.23400
C353        C  0.13068889  0.50703219  0.12969527     0.27000
C354        C  0.12938849  0.51824568  0.15733915    -0.20100
C355        C  0.11036105  0.51549875  0.17566811    -0.09800
C356        C  0.09200560  0.50178345  0.16644089    -0.10300
C357        C  0.09342985  0.49037004  0.13888625    -0.03200
C358        C  0.11253659  0.49292109  0.12074606    -0.18400
H359        H  0.21951499  0.47109999  0.53299352     0.10700
H360        H  0.18697298  0.46543491  0.06815584     0.10800
H361        H  0.17213478  0.53687296  0.06456695     0.10500
H362        H  0.20344882  0.54254627  0.02920249     0.11600
H363        H  0.15023121  0.47945315  0.08896691     0.11700
H364        H  0.15965766  0.52735748  0.11283825     0.13600
H365        H  0.14306956  0.52932685  0.16465940     0.10100
H366        H  0.10973812  0.52467315  0.19663346     0.12200
H367        H  0.07955544  0.47976592  0.13102104     0.08800
H368        H  0.11264664  0.48445681  0.09927481     0.11500
C369        C  0.38951837  0.48022240  0.16400335    -0.03100
C370        C  0.38450034  0.45977311  0.14902091    -0.05700
C371        C  0.36501872  0.45758434  0.13146710    -0.20800
C372        C  0.34987927  0.47560456  0.12879144     0.25000
C373        C  0.35463684  0.49597572  0.14415066    -0.18300
C374        C  0.37423933  0.49823547  0.16157983    -0.08300
C375        C  0.33061827  0.47328929  0.10755641    -0.18600
C376        C  0.31135016  0.48524317  0.10980107    -0.23400
C377        C  0.29356257  0.48615240  0.08607720     0.27000
C378        C  0.27601115  0.50190866  0.08925223    -0.20100
C379        C  0.26129277  0.50640286  0.06548558    -0.09800
C380        C  0.26384364  0.49513628  0.03810179    -0.10300
C381        C  0.28008009  0.47807121  0.03568621    -0.03200
C382        C  0.29469103  0.47348188  0.05938234    -0.18400
H383        H  0.39586567  0.44554051  0.15034239     0.10700
H384        H  0.36189160  0.44181069  0.11961728     0.10800
H385        H  0.34375566  0.51049247  0.14188571     0.10500
H386        H  0.37762822  0.51425151  0.17269791     0.11600
H387        H  0.33300980  0.46156235  0.08924244     0.11700
H388        H  0.30905076  0.49604823  0.12920747     0.13600
H389        H  0.27451135  0.51177937  0.10957886     0.10100
H390        H  0.24918786  0.52079445  0.56569763     0.12200
H391        H  0.28223286  0.46903886  0.01479401     0.08800
H392        H  0.30731775  0.46070191  0.05581736     0.11500
C393        C  0.50208586  0.20573853  0.04936215    -0.03100
C394        C  0.48543024  0.20558590  0.07169824    -0.05700
C395        C  0.48499764  0.18831030  0.09322038    -0.20800
C396        C  0.50127355  0.17109252  0.09283053     0.25000
C397        C  0.51833588  0.17186457  0.07097180    -0.18300
C398        C  0.51877026  0.18901794  0.04970168    -0.08300
C399        C  0.49906106  0.15138222  0.11337509    -0.18600
C400        C  0.51693684  0.13864310  0.12100889    -0.23400
C401        C  0.51554022  0.11693401  0.13769413     0.27000
C402        C  0.53548806  0.10861399  0.15035493    -0.20100
C403        C  0.53575381  0.08746242  0.16415689    -0.09800
C404        C  0.51602906  0.07395271  0.16561302    -0.10300
C405        C  0.49592215  0.08226978  0.15310408    -0.03200
C406        C  0.49567546  0.10353380  0.13915749    -0.18400
H407        H  0.47204672  0.21796059  0.07148731     0.10700
H408        H  0.47153121  0.18797346  0.10960665     0.10800
H409        H  0.53073300  0.15859941  0.06907127     0.10500
H410        H  0.53164573  0.18860552  0.03250566     0.11600
H411        H  0.48235386  0.14720387  0.12192289     0.11700
H412        H  0.53378802  0.14435301  0.11467661     0.13600
H413        H  0.55106354  0.11846532  0.14934104     0.10100
H414        H  0.55151545  0.08171237  0.17371204     0.12200
H415        H  0.48045598  0.07224706  0.15378496     0.08800
H416        H  0.48010700  0.10906760  0.12892984     0.11500
C417        C  0.50315197  0.38163678  0.33158656    -0.03100
C418        C  0.49394945  0.36036482  0.32388677    -0.05700
C419        C  0.49209404  0.34326995  0.34514164    -0.20800
C420        C  0.49914169  0.34703172  0.37468470     0.25000
C421        C  0.50914095  0.36806895  0.38226631    -0.18300
C422        C  0.51116776  0.38520653  0.36081843    -0.08300
C423        C  0.49543867  0.32841545  0.39638722    -0.18600
C424        C  0.49630609  0.33057162  0.42632811    -0.23400
C425        C  0.49147279  0.31086583  0.44585669     0.27000
C426        C  0.50437945  0.30754769  0.47177187    -0.20100
C427        C  0.50213631  0.28737027  0.48797635    -0.09800
C428        C  0.48674755  0.27046448  0.47856895    -0.10300
C429        C  0.47266982  0.27458039  0.45402871    -0.03200
C430        C  0.47484828  0.29466762  0.43796398    -0.18400
H431        H  0.48771017  0.35704711  0.30151946     0.10700
H432        H  0.48453642  0.32717424  0.33860072     0.10800
H433        H  0.51529394  0.37149364  0.40458249     0.10500
H434        H  0.51829447  0.40147945  0.36737810     0.11600
H435        H  0.49116170  0.31190760  0.38696528     0.11700
H436        H  0.50134747  0.34645123  0.43676211     0.13600
H437        H  0.51709555  0.31994692  0.47843436     0.10100
H438        H  0.51336932  0.28440861  0.50665042     0.12200
H439        H  0.46056539  0.26182046  0.44659526     0.08800
H440        H  0.46399280  0.29718048  0.41878802     0.11500
C441        C  0.46313282  0.38208980  0.17615606    -0.03100
C442        C  0.44941250  0.38010057  0.15060938    -0.05700
C443        C  0.45040302  0.36085625  0.13237761    -0.20800
C444        C  0.46537655  0.34320339  0.13880676     0.25000
C445        C  0.47887059  0.34492512  0.16470751    -0.18300
C446        C  0.47767432  0.36414032  0.18322482    -0.08300
C447        C  0.46600144  0.32345786  0.11788122    -0.18600
C448        C  0.48370368  0.30930648  0.11492578    -0.23400
C449        C  0.48521008  0.29102397  0.09167559     0.27000
C450        C  0.50361645  0.27608035  0.09259167    -0.20100
C451        C  0.50667622  0.25975632  0.07014694    -0.09800
C452        C  0.49142259  0.25807427  0.04619361    -0.10300
C453        C  0.47273124  0.27248634  0.04557033    -0.03200
C454        C  0.46964025  0.28878776  0.06788326    -0.18400
H455        H  0.43790514  0.39349902  0.14459436     0.10700
H456        H  0.43965778  0.35995706  0.11277362     0.10800
H457        H  0.49020231  0.33147731  0.17094484     0.10500
H458        H  0.48843685  0.36512318  0.20279348     0.11600
H459        H  0.45144338  0.32146460  0.10339875     0.11700
H460        H  0.49828725  0.31164109  0.12939613     0.13600
H461        H  0.51594920  0.27732651  0.11045715     0.10100
H462        H  0.52131869  0.24891632  0.07095693     0.12200
H463        H  0.46068841  0.27136083  0.02736341     0.08800
H464        H  0.45532503  0.29982461  0.06559209     0.11500
C465        C  0.50860089  0.88930039  0.35616592    -0.03100
C466        C  0.52855275  0.88339568  0.37123826    -0.05700
C467        C  0.53011929  0.86258558  0.38597020    -0.20800
C468        C  0.51197724  0.84698190  0.38560392     0.25000
C469        C  0.49198841  0.85282565  0.37050121    -0.18300
C470        C  0.49032216  0.87377169  0.35602450    -0.08300
C471        C  0.51396422  0.82575816  0.40328409    -0.18600
C472        C  0.50172371  0.80662858  0.39815370    -0.23400
C473        C  0.50183082  0.78672099  0.41869778     0.27000
C474        C  0.48302486  0.77183769  0.41896126    -0.20100
C475        C  0.48073540  0.75531595  0.44126844    -0.09800
C476        C  0.49727008  0.75345898  0.46357347    -0.10300
C477        C  0.51693054  0.76691007  0.46183887    -0.03200
C478        C  0.51939137  0.78313993  0.43940069    -0.18400
H479        H  0.54292945  0.89495052  0.37189288     0.10700
H480        H  0.54560054  0.85865872  0.39776359     0.10800
H481        H  0.47737998  0.84160011  0.37047767     0.10500
H482        H  0.47469423  0.87778060  0.34465311     0.11600
H483        H  0.52570944  0.82646961  0.42187350     0.11700
H484        H  0.48998205  0.80606195  0.37950228     0.13600
H485        H  0.46941067  0.77391495  0.40301417     0.10100
H486        H  0.46534779  0.74518934  0.44238505     0.12200
H487        H  0.52994196  0.76558333  0.47879562     0.08800
H488        H  0.53472735  0.79329921  0.43917950     0.11500
C489        C  0.46170507  0.57982334  0.18377812    -0.03100
C490        C  0.44433764  0.57967147  0.16225372    -0.05700
C491        C  0.44357811  0.59651000  0.14032289    -0.20800
C492        C  0.46040838  0.61345238  0.13913163     0.25000
C493        C  0.47743713  0.61393567  0.16104133    -0.18300
C494        C  0.47803239  0.59735438  0.18316259    -0.08300
C495        C  0.45962603  0.63092008  0.11549022    -0.18600
C496        C  0.47856739  0.63955117  0.10305089    -0.23400
C497        C  0.47843105  0.65828390  0.08109183     0.27000
C498        C  0.49613124  0.66011990  0.06030305    -0.20100
C499        C  0.49754606  0.67874190  0.04108582    -0.09800
C500        C  0.48145988  0.69598979  0.04274844    -0.10300
C501        C  0.46368236  0.69410608  0.06337006    -0.03200
C502        C  0.46206855  0.67536789  0.08225651    -0.18400
H503        H  0.43149176  0.56642014  0.16214526     0.10700
H504        H  0.43013877  0.59601589  0.12384663     0.10800
H505        H  0.49024138  0.62722218  0.16121817     0.10500
H506        H  0.49160207  0.59804198  0.19943360     0.11600
H507        H  0.44314344  0.63622109  0.10755696     0.11700
H508        H  0.49486086  0.63244242  0.10890995     0.13600
H509        H  0.50909881  0.64731196  0.05931341     0.10100
H510        H  0.51169446  0.68014572  0.02582273     0.12200
H511        H  0.45131072  0.70743669  0.06529717     0.08800
H512        H  0.44859881  0.67481942  0.09860481     0.11500
C513        C  0.50587583  0.58004774  0.33730538    -0.03100
C514        C  0.50419539  0.60113745  0.32294633    -0.05700
C515        C  0.50363293  0.62125474  0.33961431    -0.20800
C516        C  0.50414204  0.62065179  0.37092580     0.25000
C517        C  0.50634399  0.59962633  0.38529292    -0.18300
C518        C  0.50732396  0.57956570  0.36864835    -0.08300
C519        C  0.50260323  0.64212140  0.38816900    -0.18600
C520        C  0.49147244  0.64328491  0.41433655    -0.23400
C521        C  0.48961789  0.66431369  0.43245208     0.27000
C522        C  0.47119085  0.66647304  0.45193837    -0.20100
C523        C  0.46978856  0.68502124  0.47128174    -0.09800
C524        C  0.48708607  0.70154162  0.47210821    -0.10300
C525        C  0.50524696  0.69977123  0.45206660    -0.03200
C526        C  0.50650471  0.68135347  0.43234121    -0.18400
H527        H  0.50326277  0.60208355  0.29882646     0.10700
H528        H  0.50222809  0.63728876  0.32806282     0.10800
H529        H  0.50743594  0.59867143  0.40939457     0.10500
H530        H  0.50874012  0.56361702  0.38038760     0.11600
H531        H  0.50958724  0.65744815  0.37824489     0.11700
H532        H  0.48258180  0.62829276  0.42244941     0.13600
H533        H  0.45797248  0.65359182  0.45247186     0.10100
H534        H  0.45546553  0.68618418  0.48623398     0.12200
H535        H  0.51896184  0.71209224  0.45260561     0.08800
H536        H  0.52120147  0.67998204  0.41809073     0.11500
C537        C  0.09603011  0.02584388  0.14648297    -0.03100
C538        C  0.11183539  0.00827251  0.14897230    -0.05700
C539        C  0.13347703  0.01052874  0.13665326    -0.20800
C540        C  0.13981502  0.03042364  0.12143993     0.25000
C541        C  0.12393956  0.04782091  0.11854131    -0.18300
C542        C  0.10235354  0.04567358  0.13114562    -0.08300
C543        C  0.16209642  0.03287063  0.10633596    -0.18600
C544        C  0.18102827  0.02213649  0.11517818    -0.23400
C545        C  0.20238855  0.02212587  0.09744754     0.27000
C546        C  0.21774331  0.00432621  0.10144011    -0.20100
C547        C  0.23585850  0.00141056  0.08164756    -0.09800
C548        C  0.23893242  0.01637706  0.05767298    -0.10300
C549        C  0.22497324  0.03538515  0.05547367    -0.03200
C550        C  0.20702229  0.03838499  0.07526700    -0.18400
H551        H  0.10753222  0.99273250  0.16058614     0.10700
H552        H  0.14493971  0.99643332  0.13846228     0.10800
H553        H  0.12829721  0.06318320  0.10654187     0.10500
H554        H  0.09060145  0.05950276  0.12876764     0.11600
H555        H  0.16243166  0.04353851  0.08668343     0.11700
H556        H  0.18044044  0.01159383  0.13499826     0.13600
H557        H  0.21484499  0.99176905  0.11866433     0.10100
H558        H  0.24562446  0.98313044  0.57867290     0.12200
H559        H  0.22718800  0.04727581  0.03728236     0.08800
H560        H  0.19643895  0.05301647  0.07226006     0.11500
C561        C  0.29850858  0.98285312  0.48652878    -0.03100
C562        C  0.29665726  0.96522749  0.46553539    -0.05700
C563        C  0.31470786  0.96013872  0.44679952    -0.20800
C564        C  0.33508083  0.97245307  0.44870200     0.25000
C565        C  0.33767142  0.98887820  0.47144804    -0.18300
C566        C  0.31943014  0.99404873  0.49025678    -0.08300
C567        C  0.35164843  0.96975169  0.42408316    -0.18600
C568        C  0.37371641  0.97529091  0.42591338    -0.23400
C569        C  0.38869661  0.97358849  0.39947621     0.27000
C570        C  0.41053324  0.96495863  0.40270973    -0.20100
C571        C  0.42487568  0.96329129  0.37799423    -0.09800
C572        C  0.41788035  0.97087300  0.34970555    -0.10300
C573        C  0.39609801  0.97984392  0.34657709    -0.03200
C574        C  0.38156013  0.98099873  0.37117449    -0.18400
H575        H  0.28065778  0.95639920  0.46224861     0.10700
H576        H  0.31229599  0.94736634  0.42960341     0.10800
H577        H  0.35305351  0.99891396  0.47331139     0.10500
H578        H  0.32111628  0.00799027  0.50592754     0.11600
H579        H  0.34524670  0.96281735  0.40313802     0.11700
H580        H  0.38114112  0.98021756  0.44718709     0.13600
H581        H  0.41641359  0.95931533  0.42434177     0.10100
H582        H  0.44169423  0.95660259  0.38119954     0.12200
H583        H  0.39032736  0.98599891  0.32514726     0.08800
H584        H  0.36491419  0.98815238  0.36822226     0.11500
C585        C  0.41098710  0.01130023  0.19071446    -0.03100
C586        C  0.40881660  0.02804115  0.16867145    -0.05700
C587        C  0.38900285  0.02955845  0.15179621    -0.20800
C588        C  0.37115354  0.01401543  0.15597417     0.25000
C589        C  0.37298449  0.99763127  0.17862815    -0.18300
C590        C  0.39269211  0.99641521  0.19601673    -0.08300
C591        C  0.35111761  0.01533176  0.13600122    -0.18600
C592        C  0.33924203  0.99691749  0.12690290    -0.23400
C593        C  0.32128452  0.99792099  0.10360519     0.27000
C594        C  0.31733435  0.97887026  0.08534831    -0.20100
C595        C  0.30152015  0.97962802  0.06207727    -0.09800
C596        C  0.28917514  0.99940480  0.05677610    -0.10300
C597        C  0.29244742  0.01816521  0.07574334    -0.03200
C598        C  0.30829854  0.01745630  0.09895593    -0.18400
H599        H  0.42256945  0.03987188  0.16428235     0.10700
H600        H  0.38791036  0.04247622  0.13471865     0.10800
H601        H  0.35926489  0.98576059  0.18288829     0.10500
H602        H  0.39392162  0.98337761  0.21290339     0.11600
H603        H  0.34765078  0.03167837  0.12601216     0.11700
H604        H  0.34428513  0.98027309  0.13459331     0.13600
H605        H  0.32690729  0.96352780  0.08865065     0.10100
H606        H  0.29899548  0.96482128  0.04807303     0.12200
H607        H  0.28307962  0.03357769  0.07212495     0.08800
H608        H  0.31034240  0.03222369  0.11313749     0.11500
C609        C  0.77481000  0.02887270  0.44357329    -0.03100
C610        C  0.77961191  0.04860422  0.42729992    -0.05700
C611        C  0.79551184  0.04831355  0.40423949    -0.20800
C612        C  0.80743807  0.02847534  0.39774045     0.25000
C613        C  0.80156232  0.00831856  0.41283022    -0.18300
C614        C  0.78525337  0.00852946  0.43553933    -0.08300
C615        C  0.82673723  0.02993003  0.37653889    -0.18600
C616        C  0.84575901  0.01780555  0.38004337    -0.23400
C617        C  0.86672980  0.02124402  0.36205892     0.27000
C618        C  0.88292264  0.00402503  0.36178687    -0.20100
C619        C  0.90330217  0.00679596  0.34628733    -0.09800
C620        C  0.90814836  0.02703405  0.33090889    -0.10300
C621        C  0.89205132  0.04440287  0.33139533    -0.03200
C622        C  0.87160017  0.04158477  0.34680339    -0.18400
H623        H  0.77177434  0.06447597  0.43336315     0.10700
H624        H  0.79953457  0.06397586  0.39272631     0.10800
H625        H  0.80996213  0.99257366  0.40771566     0.10500
H626        H  0.78591659  0.98342564  0.94889024     0.11600
H627        H  0.82591791  0.04279599  0.35934089     0.11700
H628        H  0.84638147  0.00513087  0.39755505     0.13600
H629        H  0.87978843  0.98831236  0.37363587     0.10100
H630        H  0.91532356  0.99308127  0.34651727     0.12200
H631        H  0.89527284  0.06025538  0.31993500     0.08800
H632        H  0.86001228  0.05562039  0.34721469     0.11500
C633        C  0.72051762  0.00834218  0.02565694    -0.03100
C634        C  0.69974103  0.01766473  0.01728165    -0.05700
C635        C  0.68064512  0.01467822  0.03544493    -0.20800
C636        C  0.68205306  0.00233282  0.06219415     0.25000
C637        C  0.70266706  0.99188626  0.06942295    -0.18300
C638        C  0.72175285  0.99517444  0.05154802    -0.08300
C639        C  0.66193207  0.00095252  0.08219416    -0.17000
C640        C  0.66361822  0.99703608  0.11179285    -0.23400
C641        C  0.64411975  0.99584875  0.13272118     0.27000
C642        C  0.64696736  0.98432081  0.15982156    -0.20100
C643        C  0.62950579  0.98321401  0.18078841    -0.09800
C644        C  0.60881831  0.99396766  0.17538684    -0.10300
C645        C  0.60597232  0.00572071  0.14835799    -0.03200
C646        C  0.62340718  0.00661586  0.12717725    -0.18400
H647        H  0.69853485  0.02796799  0.99737096     0.10700
H648        H  0.66493752  0.02264388  0.02910168     0.10800
H649        H  0.70429369  0.98128471  0.08893431     0.10500
H650        H  0.73762520  0.98762967  0.05810199     0.11600
H651        H  0.64546785  0.00392811  0.07229857     0.11700
H652        H  0.68015616  0.99440306  0.12161662     0.13600
H653        H  0.66280113  0.97604219  0.16478177     0.10100
H654        H  0.63231690  0.97410354  0.20140123     0.12200
H655        H  0.59023081  0.01419289  0.14352897     0.08800
H656        H  0.62073196  0.01616402  0.10692607     0.11500
C657        C  0.72821701  0.00693452  0.45928502    -0.03100
C658        C  0.71860194  0.98634490  0.46886941    -0.05700
C659        C  0.70300856  0.97465298  0.45085762    -0.20800
C660        C  0.69688709  0.98314693  0.42274714     0.25000
C661        C  0.70711240  0.00348653  0.41282003    -0.18300
C662        C  0.72264517  0.01517309  0.43090777    -0.08300
C663        C  0.67829064  0.97155120  0.40594218    -0.18600
C664        C  0.67372261  0.97542586  0.37691344    -0.23400
C665        C  0.65295026  0.96715951  0.36122918     0.27000
C666        C  0.65172045  0.96978648  0.33011980    -0.20100
C667        C  0.63156829  0.96530568  0.31473678    -0.09800
C668        C  0.61208124  0.95809512  0.33014372    -0.10300
C669        C  0.61354737  0.95439094  0.36107906    -0.03200
C670        C  0.63369383  0.95896373  0.37650696    -0.18400
H671        H  0.72289246  0.97089687  0.98777579     0.10700
H672        H  0.69533806  0.95914791  0.45919156     0.10800
H673        H  0.70249697  0.01111889  0.39180911     0.10500
H674        H  0.72956212  0.03121264  0.42328941     0.11600
H675        H  0.66779248  0.95974491  0.41841448     0.11700
H676        H  0.68539155  0.98569747  0.36389305     0.13600
H677        H  0.66620839  0.97611532  0.31774899     0.10100
H678        H  0.63105842  0.96832272  0.29089926     0.12200
H679        H  0.59882204  0.94895402  0.37366161     0.08800
H680        H  0.63356755  0.95705981  0.40048833     0.11500
C681        C  0.97988604  0.12695666  0.31141646    -0.03100
C682        C  0.96148368  0.12735044  0.33133718    -0.05700
C683        C  0.96080354  0.14330601  0.35453957    -0.20800
C684        C  0.97874272  0.15877955  0.35875673     0.25000
C685        C  0.99678155  0.15889431  0.33830799    -0.18300
C686        C  0.99728554  0.14323039  0.31481809    -0.08300
C687        C  0.97802838  0.17514701  0.38398439    -0.18600
C688        C  0.99684612  0.18191562  0.39872860    -0.23400
C689        C  0.99720455  0.20002263  0.42191400     0.27000
C690        C  0.01539971  0.20120552  0.44217382    -0.20100
C691        C  0.01805758  0.21985821  0.46137266    -0.09800
C692        C  0.00269697  0.23776283  0.46027369    -0.10300
C693        C  0.98403434  0.23619520  0.44092825    -0.03200
C694        C  0.98121468  0.21749460  0.42203014    -0.18400
H695        H  0.94775402  0.11511629  0.32925095     0.10700
H696        H  0.94654365  0.14316220  0.36972418     0.10800
H697        H  0.01049884  0.17113294  0.34040036     0.10500
H698        H  0.01167266  0.14343859  0.29985863     0.11600
H699        H  0.96157930  0.18116455  0.39102032     0.11700
H700        H  0.01285181  0.17398772  0.39337705     0.13600
H701        H  0.02804792  0.18806257  0.44235542     0.10100
H702        H  0.03280041  0.22093775  0.47572750     0.12200
H703        H  0.97214188  0.24999232  0.43951528     0.08800
H704        H  0.96728537  0.21753019  0.40633672     0.11500
C705        C  0.01027561  0.24938728  0.02260999    -0.03100
C706        C  0.02821582  0.25105346  0.04321350    -0.05700
C707        C  0.03005676  0.23547082  0.06663122    -0.20800
C708        C  0.01434605  0.21758197  0.06946476     0.25000
C709        C  0.99618718  0.21612279  0.04919275    -0.18300
C710        C  0.99408116  0.23197351  0.02620174    -0.08300
C711        C  0.01716598  0.20055143  0.09357040    -0.18600
C712        C  0.01341813  0.17831066  0.08859257    -0.23400
C713        C  0.01713105  0.16040949  0.11128055     0.27000
C714        C  0.02491405  0.13930018  0.10161320    -0.20100
C715        C  0.02716016  0.12138103  0.12163861    -0.09800
C716        C  0.02118024  0.12389925  0.15189581    -0.10300
C717        C  0.01355990  0.14518324  0.16174377    -0.03200
C718        C  0.01169815  0.16334561  0.14164036    -0.18400
H719        H  0.04105842  0.26415597  0.04084836     0.10700
H720        H  0.04414342  0.23698625  0.08204316     0.10800
H721        H  0.98348714  0.20283948  0.05129396     0.10500
H722        H  0.97976209  0.23062821  0.01118737     0.11600
H723        H  0.02405522  0.20613117  0.11490170     0.11700
H724        H  0.00887096  0.17274320  0.06618425     0.13600
H725        H  0.02913076  0.13659976  0.07833647     0.10100
H726        H  0.03303646  0.10529841  0.11309906     0.12200
H727        H  0.00867277  0.14768313  0.18480743     0.08800
H728        H  0.00525990  0.17937257  0.14959526     0.11500
C729        C  0.99299343  0.42800255  0.14952678    -0.03100
C730        C  0.97378960  0.41551485  0.14045967    -0.05700
C731        C  0.97607873  0.39498618  0.12519545    -0.20800
C732        C  0.99756790  0.38634683  0.11867250     0.25000
C733        C  0.01684335  0.39863606  0.12835228    -0.18300
C734        C  0.01454079  0.41928821  0.14342770    -0.08300
C735        C  0.99880543  0.36470706  0.10149854    -0.18600
C736        C  0.01783020  0.35661108  0.08899271    -0.23400
C737        C  0.01789310  0.33661789  0.06868832     0.27000
C738        C  0.03469727  0.33549585  0.04663784    -0.20100
C739        C  0.03387573  0.31857978  0.02478118    -0.09800
C740        C  0.01654098  0.30213598  0.02498585    -0.10300
C741        C  0.00061584  0.30219360  0.04815497    -0.03200
C742        C  0.00126225  0.31930196  0.06989840    -0.18400
H743        H  0.95693711  0.42169528  0.14491095     0.10700
H744        H  0.96092253  0.38590557  0.11819711     0.10800
H745        H  0.03375576  0.39250327  0.12465106     0.10500
H746        H  0.02967702  0.42834500  0.15053331     0.11600
H747        H  0.98287663  0.35591878  0.09727799     0.11700
H748        H  0.03360513  0.36602407  0.09107581     0.13600
H749        H  0.04783757  0.34842675  0.04538598     0.10100
H750        H  0.04625195  0.31885056  0.00694983     0.12200
H751        H  0.98697245  0.28976749  0.04848383     0.08800
H752        H  0.98847083  0.31914007  0.08715187     0.11500
C753        C  0.98951041  0.81205127  0.02498361    -0.03100
C754        C  0.97473552  0.81466038  0.04915737    -0.05700
C755        C  0.97569570  0.83421419  0.06669039    -0.20800
C756        C  0.99191107  0.85117925  0.06091534     0.25000
C757        C  0.00590956  0.84916671  0.03565469    -0.18300
C758        C  0.00461712  0.82970972  0.01769258    -0.08300
C759        C  0.99438376  0.86988843  0.08281702    -0.18600
C760        C  0.01444017  0.87964634  0.08977042    -0.23400
C761        C  0.01701866  0.89551978  0.11534958     0.27000
C762        C  0.03337113  0.91293330  0.11422683    -0.20100
C763        C  0.03512054  0.92883513  0.13743716    -0.09800
C764        C  0.02073513  0.92734367  0.16239711    -0.10300
C765        C  0.00546453  0.90895287  0.16433967    -0.03200
C766        C  0.00363710  0.89322174  0.14113102    -0.18400
H767        H  0.96301202  0.80115709  0.05511118     0.10700
H768        H  0.96460187  0.83550441  0.08585549     0.10800
H769        H  0.01816476  0.86228495  0.03018889     0.10500
H770        H  0.01625727  0.82788821  0.99919773     0.11600
H771        H  0.97946804  0.87418993  0.09569658     0.11700
H772        H  0.02944119  0.87567404  0.07689081     0.13600
H773        H  0.04423754  0.91470756  0.09488610     0.10100
H774        H  0.04719557  0.94269415  0.13535754     0.12200
H775        H  0.99434354  0.90706875  0.18340186     0.08800
H776        H  0.99163128  0.87933790  0.14342138     0.11500
C777        C  0.98600274  0.80377901  0.45075708    -0.03100
C778        C  0.96881176  0.81941892  0.45629377    -0.05700
C779        C  0.96575316  0.83791441  0.43729892    -0.20800
C780        C  0.97979119  0.84124157  0.41231235     0.25000
C781        C  0.99668158  0.82511219  0.40639963    -0.18300
C782        C  0.99963269  0.80656466  0.42539356    -0.08300
C783        C  0.97663077  0.86217222  0.39409611    -0.18600
C784        C  0.98813664  0.86714061  0.36887539    -0.23400
C785        C  0.98529924  0.88855094  0.35172479     0.27000
C786        C  0.99215007  0.88906282  0.32172411    -0.20100
C787        C  0.99053547  0.90893411  0.30494370    -0.09800
C788        C  0.98217206  0.92892489  0.31783676    -0.10300
C789        C  0.97538155  0.92848563  0.34792525    -0.03200
C790        C  0.97698939  0.90857628  0.36472569    -0.18400
H791        H  0.95798765  0.81747987  0.47562784     0.10700
H792        H  0.95257808  0.84991463  0.44248697     0.10800
H793        H  0.00810812  0.82681296  0.38774532     0.10500
H794        H  0.01316233  0.79481362  0.42093777     0.11600
H795        H  0.96400274  0.87396510  0.40196884     0.11700
H796        H  0.99979297  0.85498571  0.35960989     0.13600
H797        H  0.99882834  0.87399945  0.31119450     0.10100
H798        H  0.99607251  0.90865647  0.28189862     0.12200
H799        H  0.96912862  0.94363683  0.35867743     0.08800
H800        H  0.97224170  0.90920721  0.38801951     0.11500
C801        C  0.99025651  0.75194649  0.43743858    -0.03100
C802        C  0.96824530  0.74507164  0.42943687    -0.05700
C803        C  0.96491199  0.72699243  0.40944820    -0.20800
C804        C  0.98357528  0.71552528  0.39761626     0.25000
C805        C  0.00549190  0.72411572  0.40329374    -0.18300
C806        C  0.00878471  0.74200182  0.42332083    -0.08300
C807        C  0.98015344  0.69371670  0.38144726    -0.18600
C808        C  0.99476462  0.67655563  0.38510055    -0.23400
C809        C  0.99354870  0.65427027  0.36963810     0.27000
C810        C  0.01316424  0.64110284  0.36946037    -0.20100
C811        C  0.01350309  0.62024186  0.35482152    -0.09800
C812        C  0.99405884  0.61177794  0.34040579    -0.10300
C813        C  0.97412536  0.62454162  0.34122772    -0.03200
C814        C  0.97386974  0.64570781  0.35559886    -0.18400
H815        H  0.95376766  0.75231383  0.44062073     0.10700
H816        H  0.94786847  0.72087456  0.40506032     0.10800
H817        H  0.02019930  0.71624102  0.39351739     0.10500
H818        H  0.02587653  0.74696246  0.42950333     0.11600
H819        H  0.96516356  0.69161727  0.36767647     0.11700
H820        H  0.00907210  0.67910697  0.40005766     0.13600
H821        H  0.02849495  0.64716097  0.38031048     0.10100
H822        H  0.02906342  0.61071198  0.35476959     0.12200
H823        H  0.95890638  0.61838223  0.33023027     0.08800
H824        H  0.95827896  0.65510914  0.35577896     0.11500
N825        N  0.99093983  0.78530584  0.98085030    -0.03300
C826        C  0.99530159  0.76288277  0.97794445    -0.00800
C827        C  0.99911890  0.75217165  0.49178880    -0.23600
C828        C  0.99876087  0.76773038  0.51458905    -0.23800
C829        C  0.99359572  0.78834166  0.50184155    -0.00900
H830        H  0.00212971  0.73418060  0.49388006     0.12900
H831        H  0.00196794  0.76440623  0.53796410     0.13000
N832        N  0.01337031  0.26307138  0.50433437    -0.03300
C833        C  0.01782242  0.28564735  0.50692368    -0.00800
C834        C  0.01019723  0.29687924  0.97022402    -0.23600
C835        C  0.00390712  0.27934604  0.95171538    -0.23800
C836        C  0.00319362  0.26002945  0.96907821    -0.00900
H837        H  0.01185460  0.31455002  0.96405465     0.12900
H838        H  0.00050189  0.28048353  0.92801244     0.13000
N839        N  0.74508428  0.01057705  0.97955670    -0.03300
C840        C  0.76572573  0.01984464  0.97384569    -0.00800
C841        C  0.77090641  0.04220563  0.49645742    -0.23600
C842        C  0.75582648  0.03876121  0.51939211    -0.23800
C843        C  0.73845877  0.02534778  0.50808088    -0.00900
H844        H  0.78659544  0.05182988  0.49758926     0.12900
H845        H  0.75714529  0.04568778  0.54174474     0.13000
N846        N  0.27329892  0.99847240  0.52770047    -0.03300
C847        C  0.25226292  0.00758099  0.52760656    -0.00800
C848        C  0.24381758  0.00933478  0.00304179    -0.23600
C849        C  0.25960633  0.99939723  0.98508047    -0.23800
C850        C  0.27786399  0.99428669  0.00305264    -0.00900
H851        H  0.22717698  0.01480577  0.99622184     0.12900
H852        H  0.25803604  0.99638341  0.96130524     0.13000
N853        N  0.48951293  0.71908712  0.99616507    -0.03300
C854        C  0.49318306  0.74156878  0.99141393    -0.00800
C855        C  0.49093256  0.75234815  0.51881488    -0.23600
C856        C  0.48458796  0.73636856  0.53950803    -0.23800
C857        C  0.48248134  0.71602617  0.52433174    -0.00900
H858        H  0.49399763  0.77019860  0.52305213     0.12900
H859        H  0.48240778  0.73914131  0.56323090     0.13000
N860        N  0.48921414  0.24177521  0.52030737    -0.03300
C861        C  0.49302733  0.21912406  0.52088995    -0.00800
C862        C  0.50254661  0.21169538  0.99400179    -0.23600
C863        C  0.49902331  0.22926608  0.97471535    -0.23800
C864        C  0.49485095  0.24814912  0.99206428    -0.00900
H865        H  0.50615371  0.19436637  0.98777023     0.12900
H866        H  0.50003145  0.22850344  0.95059745     0.13000
N867        N  0.23120299  0.51015328  0.50616396    -0.03300
C868        C  0.25314376  0.50382591  0.50897427    -0.00800
C869        C  0.26516598  0.50839649  0.98498302    -0.23600
C870        C  0.25051440  0.51835206  0.96537604    -0.23800
C871        C  0.22971694  0.51943393  0.97947914    -0.00900
H872        H  0.28295851  0.50534064  0.98118220     0.12900
H873        H  0.25452609  0.52375139  0.94289833     0.13000
N874        N  0.75506171  0.49999476  0.97269928    -0.03300
C875        C  0.73347789  0.49205501  0.97017564    -0.00800
C876        C  0.72364143  0.48451877  0.49926893    -0.23600
C877        C  0.73982337  0.49173419  0.51928007    -0.23800
C878        C  0.75814098  0.49910935  0.50267075    -0.00900
H879        H  0.70699981  0.47785403  0.50465573     0.12900
H880        H  0.73862057  0.49110896  0.54338211     0.13000
O881        O  0.46897023  0.49341389  0.70618894    -0.88200
C882        C  0.45784252  0.51840626  0.78937267     0.87800
Mg883      Mg  0.46228318  0.45910796  0.69407591     1.58100
O884        O  0.51500079  0.50933325  0.77249278    -0.87900
O885        O  0.49808874  0.51677571  0.70634412    -0.75300
C886        C  0.50449903  0.39964311  0.80655840     0.92900
O887        O  0.43073020  0.47890553  0.75316910    -0.75100
O888        O  0.49101899  0.39780174  0.78447089    -0.82600
Mg889      Mg  0.44244818  0.51116669  0.72872130     1.58000
C890        C  0.55772133  0.47878773  0.83102302     0.92800
O891        O  0.45085939  0.54416286  0.70371505    -0.80900
H892        H  0.54208660  0.51496238  0.74669561    -0.06200
C893        C  0.48319891  0.45935600  0.81885916     0.87700
O894        O  0.49971649  0.45029443  0.70145446    -0.75400
O895        O  0.46573602  0.51926293  0.76380578    -0.88100
O896        O  0.54430647  0.49554881  0.82938757    -0.80900
C897        C  0.50533526  0.55789581  0.82017499     0.92900
C898        C  0.46330790  0.56188152  0.70610588     0.92800
Mg899      Mg  0.52630280  0.45029786  0.78504248     1.58000
O900        O  0.51639241  0.41757660  0.81098242    -0.80900
O901        O  0.53860494  0.48232037  0.76034192    -0.75100
O902        O  0.49783241  0.55838998  0.79342852    -0.80900
O903        O  0.41672952  0.50234245  0.69292029    -0.82700
O904        O  0.47297793  0.40382525  0.71708716    -0.81000
C905        C  0.53234324  0.50288458  0.75964616     0.87200
O906        O  0.50352939  0.44262896  0.74908527    -0.88100
O907        O  0.49979652  0.46840549  0.80669648    -0.88200
O908        O  0.47099922  0.44451396  0.80557662    -0.75300
Mg909      Mg  0.49692743  0.53587232  0.75099401     1.58000
O910        O  0.51236894  0.53965918  0.83198454    -0.82700
H911        H  0.48949108  0.49686821  0.67100251    -0.06400
O912        O  0.45410782  0.45210666  0.73970575    -0.87900
H913        H  0.42740738  0.44607412  0.76601453    -0.06200
H914        H  0.52912764  0.43994675  0.72016674    -0.06400
C915        C  0.43694576  0.45834177  0.75310195     0.87200
C916        C  0.48537083  0.50226355  0.69342320     0.87800
C917        C  0.51148550  0.44384915  0.72358132     0.87800
H918        H  0.47858889  0.46464401  0.84115433    -0.06400
O919        O  0.46949735  0.51183860  0.81152330    -0.75400
Mg920      Mg  0.47264040  0.42562497  0.76046433     1.58000
H921        H  0.44026946  0.52260175  0.79278591    -0.06400
C922        C  0.41192835  0.48351097  0.68034486     0.92800
O923        O  0.45655363  0.42272782  0.68012879    -0.82600
C924        C  0.46476243  0.40459136  0.69070266     0.92900
O925        O  0.47879164  0.56360390  0.72584519    -0.82600
Mg926      Mg  0.50683071  0.50290994  0.81844441     1.58200
O927        O  0.42520615  0.46664347  0.68175896    -0.80900
O928        O  0.55217927  0.45927541  0.82090884    -0.82600
O929        O  0.51860913  0.99370608  0.70730501    -0.88200
C930        C  0.55266163  0.00465940  0.78453915     0.87800
Mg931      Mg  0.48444938  0.00450724  0.70129976     1.58100
O932        O  0.53569079  0.94817893  0.77273661    -0.87900
O933        O  0.53859252  0.96260849  0.70501957    -0.75300
C934        C  0.43223216  0.96972875  0.82526381     0.92900
O935        O  0.51391002  0.03446151  0.75396900    -0.75100
O936        O  0.42917024  0.98345280  0.80370714    -0.82600
Mg937      Mg  0.54168184  0.01869225  0.72464540     1.58000
C938        C  0.50585203  0.91055227  0.83863647     0.92800
O939        O  0.57078711  0.00622217  0.69450286    -0.80900
H940        H  0.53526676  0.92050560  0.74682342    -0.06200
C941        C  0.49450433  0.98577508  0.82549941     0.87700
O942        O  0.47137665  0.96841032  0.71134269    -0.75400
O943        O  0.55001568  0.99596683  0.75957923    -0.88100
O944        O  0.52383999  0.92220912  0.83396743    -0.80900
C945        C  0.58872496  0.95638275  0.81251110     0.92900
C946        C  0.58754151  0.99281552  0.69588247     0.92800
Mg947      Mg  0.47728585  0.94325763  0.79493047     1.58000
O948        O  0.44908632  0.95640927  0.82590060    -0.80900
O949        O  0.50486610  0.92765144  0.76541469    -0.75100
O950        O  0.58724735  0.96294788  0.78545918    -0.80900
O951        O  0.53286925  0.04393282  0.68908652    -0.82700
O952        O  0.43056851  0.99982923  0.73369437    -0.81000
C953        C  0.52586692  0.93157449  0.76142222     0.87200
O954        O  0.46848068  0.96615378  0.76005813    -0.88100
O955        O  0.50032281  0.96831233  0.81229117    -0.88200
O956        O  0.47985397  0.99911097  0.81468300    -0.75300
Mg957      Mg  0.56185062  0.96329814  0.74635063     1.58000
O958        O  0.57141037  0.94954791  0.82700446    -0.82700
H959        H  0.51608965  0.97189174  0.67314107    -0.06400
O960        O  0.48304425  0.01393419  0.74738361    -0.87900
H961        H  0.48373293  0.04165851  0.77320863    -0.06200
H962        H  0.45912426  0.94068293  0.73298856    -0.06400
C963        C  0.49297802  0.03052195  0.75852457     0.87200
C964        C  0.52417711  0.97615216  0.69412535     0.87800
C965        C  0.46579811  0.95777170  0.73491859     0.87800
H966        H  0.50253222  0.99012068  0.84649231    -0.06400
O967        O  0.54708511  0.99431615  0.80831622    -0.75400
Mg968      Mg  0.45646452  0.99866692  0.77340031     1.58000
H969        H  0.55920659  0.02181767  0.78610710    -0.06400
C970        C  0.51373193  0.05137843  0.68097722     0.92800
O971        O  0.44829250  0.01460316  0.69417308    -0.82600
C972        C  0.43027583  0.00827622  0.70740187     0.92900
O973        O  0.58922874  0.97819685  0.71660235    -0.82600
Mg974      Mg  0.53455773  0.95821973  0.81890820     1.58200
O975        O  0.49537930  0.04066571  0.68674817    -0.80900
O976        O  0.48655440  0.91723865  0.82987920    -0.82600
O977        O  0.01678541  0.00980008  0.68727015    -0.88200
C978        C  0.03014086  0.98378250  0.76891829     0.87800
Mg979      Mg  0.02406297  0.04412920  0.67585082     1.58100
O980        O  0.97269495  0.99340404  0.75542373    -0.87900
O981        O  0.98742659  0.98666973  0.68853115    -0.75300
C982        C  0.98338535  0.10334556  0.79045249     0.92900
O983        O  0.05628263  0.02302293  0.73289018    -0.75100
O984        O  0.99808426  0.10522348  0.76976012    -0.82600
Mg985      Mg  0.04343006  0.99121629  0.70779869     1.58000
C986        C  0.93241381  0.02410487  0.81659289     0.92800
O987        O  0.03301098  0.95894509  0.68149460    -0.80900
H988        H  0.94504624  0.98787751  0.73054744    -0.06200
C989        C  0.00587511  0.04325655  0.80125721     0.87700
O990        O  0.98692176  0.05345472  0.68434204    -0.75400
O991        O  0.02134389  0.98323616  0.74383655    -0.88100
O992        O  0.94586779  0.00744334  0.81440050    -0.80900
C993        C  0.98383760  0.94467959  0.80182083     0.92900
C994        C  0.02056604  0.94128695  0.68472602     0.92800
Mg995      Mg  0.96194766  0.05246694  0.76839987     1.58000
O996        O  0.97125790  0.08545785  0.79351728    -0.80900
O997        O  0.94920035  0.02056028  0.74388502    -0.75100
O998        O  0.99075867  0.94445604  0.77482094    -0.80900
O999        O  0.06852921  0.99998430  0.67159517    -0.82700
O1000       O  0.01455903  0.09974540  0.70042218    -0.81000
C1001       C  0.95515742  0.99993232  0.74317822     0.87200
O1002       O  0.98419008  0.06064717  0.73228270    -0.88100
O1003       O  0.98910724  0.03431633  0.78925354    -0.88200
O1004       O  0.01794374  0.05812172  0.78801064    -0.75300
Mg1005     Mg  0.98986637  0.96701481  0.73268441     1.58000
O1006       O  0.97672746  0.96277286  0.81408281    -0.82700
H1007       H  0.99482689  0.00708915  0.65339436    -0.06400
O1008       O  0.03321675  0.05066876  0.72138233    -0.87900
H1009       H  0.06052651  0.05549627  0.74716110    -0.06200
H1010       H  0.95810463  0.06416504  0.70424981    -0.06400
C1011       C  0.05046582  0.04372551  0.73400835     0.87200
C1012       C  0.99975833  0.00132865  0.67533117     0.87800
C1013       C  0.97572627  0.05989026  0.70699991     0.87800
H1014       H  0.01079805  0.03777794  0.82332490    -0.06400
O1015       O  0.01936461  0.99036806  0.79182606    -0.75400
Mg1016     Mg  0.01555835  0.07741170  0.74350876     1.58000
H1017       H  0.04774607  0.97930554  0.77122601    -0.06400
C1018       C  0.07409520  0.01915873  0.66074918     0.92800
O1019       O  0.02987212  0.08052958  0.66274457    -0.82600
C1020       C  0.02200389  0.09876554  0.67363162     0.92900
O1021       O  0.00681457  0.93929821  0.70644050    -0.82600
Mg1022     Mg  0.98241033  0.99966143  0.80087663     1.58200
O1023       O  0.06118045  0.03629167  0.66291681    -0.80900
O1024       O  0.93700514  0.04331973  0.80504105    -0.82600
O1025       O  0.98224890  0.50640420  0.69171354    -0.88200
C1026       C  0.95244393  0.49512032  0.77214064     0.87800
Mg1027     Mg  0.01687903  0.49863300  0.68256538     1.58100
O1028       O  0.96468688  0.55226236  0.75732882    -0.87900
O1029       O  0.95967984  0.53573981  0.69060481    -0.75300
C1030       C  0.07233100  0.53863149  0.80119739     0.92900
O1031       O  0.99242565  0.46740317  0.73896865    -0.75100
O1032       O  0.07542784  0.52497769  0.77953644    -0.82600
Mg1033     Mg  0.96210061  0.48002489  0.71160353     1.58000
C1034       C  0.99658594  0.59310799  0.81961178     0.92800
O1035       O  0.93086023  0.48975068  0.68329484    -0.80900
H1036       H  0.96230669  0.57923191  0.73059772    -0.06200
C1037       C  0.01105219  0.51830053  0.80701007     0.87700
O1038       O  0.02729434  0.53572836  0.69086515    -0.75400
O1039       O  0.95334731  0.50307116  0.74661811    -0.88100
O1040       O  0.97831111  0.58144840  0.81672756    -0.80900
C1041       C  0.91434393  0.54238157  0.80183693     0.92900
C1042       C  0.91334908  0.50219165  0.68482253     0.92800
Mg1043     Mg  0.02399592  0.56093745  0.77429688     1.58000
O1044       O  0.05447203  0.55045550  0.80314652    -0.80900
O1045       O  0.99391876  0.57425675  0.74693187    -0.75100
O1046       O  0.91439995  0.53413232  0.77534754    -0.80900
O1047       O  0.97168897  0.45412300  0.67629349    -0.82700
O1048       O  0.07154101  0.50752741  0.71080049    -0.81000
C1049       C  0.97300543  0.56906343  0.74470716     0.87200
O1050       O  0.03253274  0.53842360  0.73918013    -0.88100
O1051       O  0.00344900  0.53516833  0.79418093    -0.88200
O1052       O  0.02622899  0.50598501  0.79526664    -0.75300
Mg1053     Mg  0.93834159  0.53441456  0.73363506     1.58000
O1054       O  0.93219892  0.55081889  0.81366178    -0.82700
H1055       H  0.98126092  0.52769125  0.65707053    -0.06400
O1056       O  0.02135880  0.48980151  0.72860702    -0.87900
H1057       H  0.02408784  0.46287183  0.75532806    -0.06200
H1058       H  0.03859896  0.56435846  0.71154995    -0.06400
C1059       C  0.01326016  0.47288168  0.74118882     0.87200
C1060       C  0.97459551  0.52318908  0.67876119     0.87800
C1061       C  0.03334335  0.54683843  0.71393136     0.87800
H1062       H  0.00426258  0.51361889  0.82856971    -0.06400
O1063       O  0.95816313  0.50671891  0.79498752    -0.75400
Mg1064     Mg  0.04773500  0.50734373  0.75219038     1.58000
H1065       H  0.94720917  0.47763840  0.77502651    -0.06400
C1066       C  0.99112568  0.44864963  0.66657347     0.92800
O1067       O  0.05363834  0.49207236  0.67178819    -0.82600
C1068       C  0.07158544  0.49981158  0.68408623     0.92900
O1069       O  0.91100113  0.51684348  0.70557277    -0.82600
Mg1070     Mg  0.96898444  0.54386734  0.80345597     1.58200
O1071       O  0.00832885  0.46168646  0.66980610    -0.80900
O1072       O  0.01529574  0.58609304  0.80948020    -0.82600
C1073       C  0.77991187  0.50567080  0.51664271    -0.03100
C1074       C  0.78060187  0.52374057  0.53703791    -0.05700
C1075       C  0.79947859  0.52714838  0.55542592    -0.20800
C1076       C  0.81772774  0.51213266  0.55443344     0.25000
C1077       C  0.81758336  0.49480771  0.53265932    -0.18300
C1078       C  0.79880010  0.49166261  0.51385548    -0.08300
C1079       C  0.83590493  0.51458732  0.57736032    -0.18600
C1080       C  0.84810746  0.49701556  0.58757179    -0.23400
C1081       C  0.86444774  0.49871712  0.61295176     0.27000
C1082       C  0.88124266  0.48219868  0.61570648    -0.20100
C1083       C  0.89680172  0.48299148  0.63933037    -0.09800
C1084       C  0.89574739  0.50019434  0.66110524    -0.10300
C1085       C  0.87850954  0.51635111  0.65885260    -0.03200
C1086       C  0.86305226  0.51564739  0.63510945    -0.18400
H1087       H  0.76609582  0.53463665  0.53959439     0.10700
H1088       H  0.79925792  0.54079965  0.57166185     0.10800
H1089       H  0.83166304  0.48336851  0.53051500     0.10500
H1090       H  0.79846802  0.47752311  0.49836008     0.11600
H1091       H  0.83807905  0.53118468  0.58753471     0.11700
H1092       H  0.84587892  0.48043163  0.57735279     0.13600
H1093       H  0.88252551  0.46876385  0.59926151     0.10100
H1094       H  0.90980015  0.47022778  0.64035960     0.12200
H1095       H  0.87713775  0.52980777  0.67523461     0.08800
H1096       H  0.84990304  0.52822579  0.63454899     0.11500
C1097       C  0.89333678  0.54146862  0.82016759    -0.03100
C1098       C  0.89274771  0.55251997  0.84801567    -0.05700
C1099       C  0.87408711  0.55007325  0.86688795    -0.20800
C1100       C  0.85546420  0.53640417  0.85871273     0.25000
C1101       C  0.85560795  0.52590472  0.83035475    -0.18300
C1102       C  0.87436855  0.52842015  0.81132594    -0.08300
C1103       C  0.83668181  0.53369643  0.88081176    -0.18600
C1104       C  0.82015615  0.51769679  0.87938860    -0.23400
C1105       C  0.80276043  0.51412230  0.90326520     0.27000
C1106       C  0.79033490  0.49362781  0.90354698    -0.20100
C1107       C  0.77445974  0.48911857  0.92603444    -0.09800
C1108       C  0.77068121  0.50499140  0.94882040    -0.10300
C1109       C  0.78260955  0.52568218  0.94831578    -0.03200
C1110       C  0.79832270  0.53032962  0.92570267    -0.18400
H1111       H  0.90694787  0.56280636  0.85558312     0.10700
H1112       H  0.87446177  0.55857121  0.88837396     0.10800
H1113       H  0.84144262  0.51568683  0.82269562     0.10500
H1114       H  0.87423225  0.51971004  0.78999924     0.11600
H1115       H  0.83759756  0.54468617  0.90020751     0.11700
H1116       H  0.82000961  0.50572008  0.86098303     0.13600
H1117       H  0.79318444  0.48086815  0.88655798     0.10100
H1118       H  0.76548642  0.47300906  0.92606883     0.12200
H1119       H  0.77961200  0.53831905  0.96540213     0.08800
H1120       H  0.80671099  0.54669484  0.92600139     0.11500
C1121       C  0.58063429  0.48228497  0.84412836    -0.03100
C1122       C  0.58684537  0.50312689  0.85727108    -0.05700
C1123       C  0.60878891  0.50670691  0.86829006    -0.20800
C1124       C  0.62515651  0.48965442  0.86642570     0.25000
C1125       C  0.61894706  0.46882906  0.85297200    -0.18300
C1126       C  0.59696421  0.46521431  0.84213955    -0.08300
C1127       C  0.64801626  0.49422268  0.87971842    -0.18600
C1128       C  0.66446736  0.47865371  0.88227554    -0.23400
C1129       C  0.68519524  0.48237126  0.90062497     0.27000
C1130       C  0.69431805  0.46367877  0.91552352    -0.20100
C1131       C  0.71155645  0.46668156  0.93655377    -0.09800
C1132       C  0.72048274  0.48834527  0.94244151    -0.10300
C1133       C  0.71279540  0.50686626  0.92585060    -0.03200
C1134       C  0.69519162  0.50393888  0.90507916    -0.18400
H1135       H  0.57476998  0.51672827  0.85900172     0.10700
H1136       H  0.61295278  0.52291724  0.87847966     0.10800
H1137       H  0.63076720  0.45516251  0.85051726     0.10500
H1138       H  0.59286282  0.44905260  0.83179757     0.11600
H1139       H  0.65072633  0.51078360  0.88985324     0.11700
H1140       H  0.66178140  0.46163480  0.87381742     0.13600
H1141       H  0.68708534  0.44687845  0.91232826     0.10100
H1142       H  0.71708506  0.45226067  0.94946915     0.12200
H1143       H  0.71983343  0.51893159  0.42947178     0.08800
H1144       H  0.68899554  0.51861615  0.89331100     0.11500
C1145       C  0.20911132  0.52749336  0.96390882    -0.03100
C1146       C  0.21124310  0.54565626  0.94382883    -0.05700
C1147       C  0.19393961  0.55052844  0.92371783    -0.20800
C1148       C  0.17389235  0.53761406  0.92342738     0.25000
C1149       C  0.17105447  0.52029944  0.94478496    -0.18300
C1150       C  0.18858954  0.51522048  0.96478127    -0.08300
C1151       C  0.15765726  0.54110817  0.89850694    -0.18600
C1152       C  0.13548714  0.53584751  0.89991393    -0.23400
C1153       C  0.12012131  0.53832601  0.87385269     0.27000
C1154       C  0.09750873  0.54422477  0.87867933    -0.20100
C1155       C  0.08231189  0.54538860  0.85477178    -0.09800
C1156       C  0.08925690  0.53999374  0.82559808    -0.10300
C1157       C  0.11194823  0.53421469  0.82067687    -0.03200
C1158       C  0.12729970  0.53358322  0.84453023    -0.18400
H1159       H  0.22684343  0.55544856  0.94267811     0.10700
H1160       H  0.19656846  0.56394661  0.90757150     0.10800
H1161       H  0.15598817  0.50969447  0.94482770     0.10500
H1162       H  0.18662284  0.50074445  0.97937151     0.11600
H1163       H  0.16427557  0.54869356  0.87817288     0.11700
H1164       H  0.12815940  0.53031975  0.92093176     0.13600
H1165       H  0.09155344  0.54778945  0.90105972     0.10100
H1166       H  0.06486365  0.54963588  0.85930918     0.12200
H1167       H  0.11772910  0.52986906  0.79846291     0.08800
H1168       H  0.14453642  0.52852909  0.84015663     0.11500
C1169       C  0.21335279  0.50687200  0.52768137    -0.03100
C1170       C  0.20916085  0.48527158  0.53961719    -0.05700
C1171       C  0.19120911  0.48167738  0.55943710    -0.20800
C1172       C  0.17749297  0.49973029  0.56834980     0.25000
C1173       C  0.18183228  0.52147033  0.55662747    -0.18300
C1174       C  0.19954073  0.52495425  0.53628495    -0.08300
C1175       C  0.15808138  0.49511794  0.58857374    -0.18600
C1176       C  0.15124079  0.50990749  0.60959006    -0.23400
C1177       C  0.13148584  0.50549548  0.62941761     0.27000
C1178       C  0.13090367  0.51551123  0.65789710    -0.20100
C1179       C  0.11185551  0.51292138  0.67625124    -0.09800
C1180       C  0.09278439  0.50056491  0.66624880    -0.10300
C1181       C  0.09355023  0.49025721  0.63788304    -0.03200
C1182       C  0.11265403  0.49265814  0.61970528    -0.18400
H1183       H  0.21835923  0.47136488  0.03304651     0.10700
H1184       H  0.18805503  0.46475597  0.56793029     0.10800
H1185       H  0.17120680  0.53561232  0.56255476     0.10500
H1186       H  0.20248749  0.54171026  0.52717053     0.11600
H1187       H  0.14995022  0.47854316  0.58703722     0.11700
H1188       H  0.16088852  0.52549166  0.61307900     0.13600
H1189       H  0.14515218  0.52557433  0.66583845     0.10100
H1190       H  0.11180825  0.52118530  0.69788156     0.12200
H1191       H  0.07914389  0.48071772  0.62937120     0.08800
H1192       H  0.11226067  0.48514913  0.59762554     0.11500
C1193       C  0.39051789  0.48124307  0.66319604    -0.03100
C1194       C  0.38462399  0.46065155  0.64916914    -0.05700
C1195       C  0.36496202  0.45883234  0.63189547    -0.20800
C1196       C  0.35061812  0.47744438  0.62837614     0.25000
C1197       C  0.35638506  0.49802101  0.64266030    -0.18300
C1198       C  0.37604835  0.49983755  0.65996615    -0.08300
C1199       C  0.33097680  0.47518118  0.60770187    -0.18600
C1200       C  0.31324435  0.48939708  0.60748957    -0.23400
C1201       C  0.29530248  0.48941877  0.58399038     0.27000
C1202       C  0.27715947  0.50449921  0.58704119    -0.20100
C1203       C  0.26194381  0.50787289  0.56349680    -0.09800
C1204       C  0.26462634  0.49617640  0.53645304    -0.10300
C1205       C  0.28172318  0.47998569  0.53408010    -0.03200
C1206       C  0.29692413  0.47663055  0.55745750    -0.18400
H1207       H  0.39537109  0.44598567  0.65115842     0.10700
H1208       H  0.36108191  0.44285658  0.62091762     0.10800
H1209       H  0.34627338  0.51301387  0.63981549     0.10500
H1210       H  0.38014649  0.51599514  0.67030830     0.11600
H1211       H  0.33154383  0.46119312  0.59203232     0.11700
H1212       H  0.31206156  0.50225081  0.62477343     0.13600
H1213       H  0.27544344  0.51460727  0.60713349     0.10100
H1214       H  0.24909700  0.51984367  0.06783163     0.12200
H1215       H  0.28414597  0.47081906  0.51334221     0.08800
H1216       H  0.31049667  0.46491022  0.55360868     0.11500
C1217       C  0.49598457  0.20463847  0.54742925    -0.03100
C1218       C  0.48020684  0.20437900  0.57081279    -0.05700
C1219       C  0.48079578  0.18716662  0.59236515    -0.20800
C1220       C  0.49720485  0.17009271  0.59093059     0.25000
C1221       C  0.51346310  0.17106465  0.56799454    -0.18300
C1222       C  0.51289343  0.18819024  0.54671463    -0.08300
C1223       C  0.49575065  0.15043511  0.61171950    -0.18600
C1224       C  0.51336500  0.13662181  0.61682492    -0.23400
C1225       C  0.51238789  0.11511954  0.63413146     0.27000
C1226       C  0.53277609  0.10367400  0.63878610    -0.20100
C1227       C  0.53311178  0.08302669  0.65382880    -0.09800
C1228       C  0.51299016  0.07313368  0.66456271    -0.10300
C1229       C  0.49246619  0.08441156  0.65982280    -0.03200
C1230       C  0.49212560  0.10520369  0.64474794    -0.18400
H1231       H  0.46670215  0.21661820  0.57143879     0.10700
H1232       H  0.46794220  0.18672770  0.60958596     0.10800
H1233       H  0.52595363  0.15801165  0.56514442     0.10500
H1234       H  0.52510044  0.18794187  0.52867770     0.11600
H1235       H  0.47962274  0.14726885  0.62250807     0.11700
H1236       H  0.52978109  0.14116146  0.60769341     0.13600
H1237       H  0.54861761  0.11069814  0.63061734     0.10100
H1238       H  0.54921225  0.07475882  0.65691130     0.12200
H1239       H  0.47667113  0.07721391  0.66785762     0.08800
H1240       H  0.47595272  0.11312698  0.64128903     0.11500
C1241       C  0.50523135  0.38080957  0.82837164    -0.03100
C1242       C  0.49448584  0.36002846  0.82169151    -0.05700
C1243       C  0.49275368  0.34305984  0.84321090    -0.20800
C1244       C  0.50144719  0.34644696  0.87207303     0.25000
C1245       C  0.51279607  0.36698530  0.87866406    -0.18300
C1246       C  0.51469673  0.38398458  0.85695379    -0.08300
C1247       C  0.49836511  0.32786213  0.89406692    -0.18600
C1248       C  0.49970593  0.33023926  0.92399628    -0.23400
C1249       C  0.49568944  0.31067241  0.94424027     0.27000
C1250       C  0.50809390  0.30887017  0.97090829    -0.20100
C1251       C  0.50667780  0.28906395  0.98810444    -0.09800
C1252       C  0.49261441  0.27097911  0.97893975    -0.10300
C1253       C  0.47889598  0.27357543  0.95364879    -0.03200
C1254       C  0.48024052  0.29327062  0.93661488    -0.18400
H1255       H  0.48700674  0.35698407  0.79992770     0.10700
H1256       H  0.48410142  0.32734532  0.83742968     0.10800
H1257       H  0.52024094  0.37003566  0.90039512     0.10500
H1258       H  0.52302099  0.39984183  0.86281704     0.11600
H1259       H  0.49421769  0.31126884  0.88485421     0.11700
H1260       H  0.50449557  0.34639290  0.93391484     0.13600
H1261       H  0.51983229  0.32222107  0.97749638     0.10100
H1262       H  0.51759614  0.28732444  0.00738297     0.12200
H1263       H  0.46777921  0.25989781  0.94636094     0.08800
H1264       H  0.46960823  0.29453638  0.91700524     0.11500
C1265       C  0.46510082  0.38408236  0.67139588    -0.03100
C1266       C  0.45428740  0.38419923  0.64342629    -0.05700
C1267       C  0.45553012  0.36548768  0.62436204    -0.20800
C1268       C  0.46763543  0.34612072  0.63256969     0.25000
C1269       C  0.47817343  0.34579690  0.66084098    -0.18300
C1270       C  0.47689121  0.36458686  0.68000032    -0.08300
C1271       C  0.46886025  0.32715112  0.61051272    -0.18600
C1272       C  0.48013240  0.30759637  0.61445345    -0.23400
C1273       C  0.48145247  0.28972713  0.59089940     0.27000
C1274       C  0.49973358  0.27466223  0.59103701    -0.20100
C1275       C  0.50209243  0.25844939  0.56832179    -0.09800
C1276       C  0.48611492  0.25697115  0.54518206    -0.10300
C1277       C  0.46738165  0.27133372  0.54568441    -0.03200
C1278       C  0.46495140  0.28742525  0.56833293    -0.18400
H1279       H  0.44498705  0.39887529  0.63605221     0.10700
H1280       H  0.44713670  0.36628589  0.60286692     0.10800
H1281       H  0.48759834  0.33132603  0.66837397     0.10500
H1282       H  0.48545462  0.36396893  0.70137592     0.11600
H1283       H  0.46051578  0.33000218  0.58929028     0.11700
H1284       H  0.48967505  0.30481601  0.63474526     0.13600
H1285       H  0.51253360  0.27584036  0.60832848     0.10100
H1286       H  0.51668278  0.24752264  0.56829077     0.12200
H1287       H  0.45466911  0.27013098  0.52829420     0.08800
H1288       H  0.45005845  0.29788990  0.56802413     0.11500
C1289       C  0.50746812  0.88856664  0.85449348    -0.03100
C1290       C  0.52737528  0.88280546  0.86972867    -0.05700
C1291       C  0.52886428  0.86217480  0.88484597    -0.20800
C1292       C  0.51070152  0.84660670  0.88466094     0.25000
C1293       C  0.49079815  0.85223271  0.86922911    -0.18300
C1294       C  0.48919927  0.87302474  0.85437740    -0.08300
C1295       C  0.51264588  0.82562613  0.90276217    -0.18600
C1296       C  0.50074798  0.80629771  0.89763341    -0.23400
C1297       C  0.50140665  0.78637937  0.91809509     0.27000
C1298       C  0.48295280  0.77106611  0.91853061    -0.20100
C1299       C  0.48123473  0.75445465  0.94080135    -0.09800
C1300       C  0.49802152  0.75292965  0.96281835    -0.10300
C1301       C  0.51738303  0.76677398  0.96080846    -0.03200
C1302       C  0.51925419  0.78312246  0.93846324    -0.18400
H1303       H  0.54173531  0.89438335  0.87033350     0.10700
H1304       H  0.54429111  0.85837157  0.89683570     0.10800
H1305       H  0.47620840  0.84097944  0.86928068     0.10500
H1306       H  0.47361971  0.87693900  0.84282820     0.11600
H1307       H  0.52423839  0.82662101  0.92150002     0.11700
H1308       H  0.48907296  0.80546516  0.87892102     0.13600
H1309       H  0.46914301  0.77289775  0.90282246     0.10100
H1310       H  0.46602589  0.74408154  0.94223718     0.12200
H1311       H  0.53050519  0.76580657  0.97766877     0.08800
H1312       H  0.53435099  0.79363552  0.93808917     0.11500
C1313       C  0.46045066  0.58046104  0.68432281    -0.03100
C1314       C  0.44101750  0.58153374  0.66620707    -0.05700
C1315       C  0.43946177  0.59785428  0.64367228    -0.20800
C1316       C  0.45750680  0.61297313  0.63835170     0.25000
C1317       C  0.47663736  0.61232095  0.65701123    -0.18300
C1318       C  0.47803978  0.59631080  0.67981679    -0.08300
C1319       C  0.45582804  0.62986955  0.61400657    -0.18600
C1320       C  0.47404983  0.63669019  0.59819355    -0.23400
C1321       C  0.47383047  0.65555083  0.57628303     0.27000
C1322       C  0.49139559  0.65720529  0.55522911    -0.20100
C1323       C  0.49354908  0.67632901  0.53697410    -0.09800
C1324       C  0.47827366  0.69422811  0.53971453    -0.10300
C1325       C  0.46035654  0.69235392  0.56010711    -0.03200
C1326       C  0.45803993  0.67316834  0.57812079    -0.18400
H1327       H  0.42714091  0.56959991  0.66922450     0.10700
H1328       H  0.42439718  0.59830943  0.62988167     0.10800
H1329       H  0.49050779  0.62426568  0.65411183     0.10500
H1330       H  0.49322213  0.59594679  0.69337637     0.11600
H1331       H  0.43920426  0.63639932  0.60873262     0.11700
H1332       H  0.49008465  0.62827149  0.60176552     0.13600
H1333       H  0.50391472  0.64399091  0.55358882     0.10100
H1334       H  0.50775597  0.67763113  0.52179046     0.12200
H1335       H  0.44855475  0.70612742  0.56276328     0.08800
H1336       H  0.44462485  0.67284781  0.59452541     0.11500
C1337       C  0.50562180  0.57903946  0.83818847    -0.03100
C1338       C  0.50595182  0.60040794  0.82435564    -0.05700
C1339       C  0.50588739  0.62030442  0.84154675    -0.20800
C1340       C  0.50488884  0.61926564  0.87284640     0.25000
C1341       C  0.50478546  0.59786543  0.88667925    -0.18300
C1342       C  0.50524086  0.57800714  0.86953743    -0.08300
C1343       C  0.50438677  0.64068048  0.89055229    -0.18600
C1344       C  0.49353723  0.64217480  0.91693399    -0.23400
C1345       C  0.49230713  0.66319358  0.93533505     0.27000
C1346       C  0.47446659  0.66516595  0.95578870    -0.20100
C1347       C  0.47318755  0.68387022  0.97487277    -0.09800
C1348       C  0.49000935  0.70087818  0.97450370    -0.10300
C1349       C  0.50776112  0.69917908  0.95377549    -0.03200
C1350       C  0.50891220  0.68052396  0.93430656    -0.18400
H1351       H  0.50642156  0.60173842  0.80024414     0.10700
H1352       H  0.50622885  0.63656113  0.83035508     0.10800
H1353       H  0.50467320  0.59639498  0.91076370     0.10500
H1354       H  0.50499467  0.56179976  0.88084867     0.11600
H1355       H  0.51198816  0.65576698  0.88077979     0.11700
H1356       H  0.48412309  0.62749475  0.92498076     0.13600
H1357       H  0.46147263  0.65209318  0.95711401     0.10100
H1358       H  0.45914691  0.68492763  0.99029441     0.12200
H1359       H  0.52112178  0.71188506  0.95334109     0.08800
H1360       H  0.52320166  0.67935022  0.91932545     0.11500
C1361       C  0.09642365  0.02157788  0.64586932    -0.03100
C1362       C  0.11259947  0.00438198  0.64852522    -0.05700
C1363       C  0.13392306  0.00671729  0.63533023    -0.20800
C1364       C  0.13959387  0.02633564  0.61908239     0.25000
C1365       C  0.12334514  0.04337322  0.61604619    -0.18300
C1366       C  0.10206420  0.04114819  0.62952778    -0.08300
C1367       C  0.16160833  0.02884949  0.60330528    -0.18600
C1368       C  0.18078850  0.01849711  0.61200105    -0.23400
C1369       C  0.20192789  0.01860941  0.59388874     0.27000
C1370       C  0.21719462  0.00066073  0.59716259    -0.20100
C1371       C  0.23527056  0.99811561  0.57724112    -0.09800
C1372       C  0.23838733  0.01359577  0.55385527    -0.10300
C1373       C  0.22443549  0.03264741  0.55229116    -0.03200
C1374       C  0.20650099  0.03527011  0.57222323    -0.18400
H1375       H  0.10882305  0.98906385  0.66092304     0.10700
H1376       H  0.14565251  0.99286223  0.63731560     0.10800
H1377       H  0.12717534  0.05851060  0.60328128     0.10500
H1378       H  0.08999160  0.05468053  0.62698686     0.11600
H1379       H  0.16159057  0.03922312  0.58336305     0.11700
H1380       H  0.18062525  0.00819905  0.63204464     0.13600
H1381       H  0.21428138  0.98776483  0.61394295     0.10100
H1382       H  0.24625706  0.98649778  0.08365387     0.12200
H1383       H  0.22666036  0.04488515  0.53450746     0.08800
H1384       H  0.19588304  0.04994984  0.56980572     0.11500
C1385       C  0.29877192  0.98446802  0.99056447    -0.03100
C1386       C  0.29661086  0.96619376  0.97059861    -0.05700
C1387       C  0.31429449  0.96063404  0.95146982    -0.20800
C1388       C  0.33463072  0.97309061  0.95197153     0.25000
C1389       C  0.33758541  0.99020954  0.97374697    -0.18300
C1390       C  0.31969690  0.99587427  0.99292976    -0.08300
C1391       C  0.35071020  0.96975472  0.92688486    -0.18600
C1392       C  0.37291364  0.97489971  0.92793675    -0.23400
C1393       C  0.38755426  0.97268861  0.90115150     0.27000
C1394       C  0.40972708  0.96486610  0.90429876    -0.20100
C1395       C  0.42390840  0.96312143  0.87939575    -0.09800
C1396       C  0.41640815  0.96982330  0.85094287    -0.10300
C1397       C  0.39425868  0.97788438  0.84784831    -0.03200
C1398       C  0.37989987  0.97911063  0.87264649    -0.18400
H1399       H  0.28059649  0.95720646  0.96834714     0.10700
H1400       H  0.31160035  0.94734240  0.93504211     0.10800
H1401       H  0.35295000  0.00035786  0.97449805     0.10500
H1402       H  0.32160362  0.01028868  0.00780148     0.11600
H1403       H  0.34381498  0.96259431  0.90634978     0.11700
H1404       H  0.38069655  0.98002317  0.94891380     0.13600
H1405       H  0.41604298  0.96000662  0.92605291     0.10100
H1406       H  0.44100319  0.95714502  0.88256851     0.12200
H1407       H  0.38807834  0.98333724  0.82628296     0.08800
H1408       H  0.36301388  0.98567396  0.86966009     0.11500
C1409       C  0.40870037  0.01040200  0.69086425    -0.03100
C1410       C  0.40640717  0.02762512  0.66951641    -0.05700
C1411       C  0.38732898  0.02840023  0.65114210    -0.20800
C1412       C  0.37028375  0.01171196  0.65314049     0.25000
C1413       C  0.37216602  0.99482342  0.67518606    -0.18300
C1414       C  0.39117707  0.99427677  0.69401243    -0.08300
C1415       C  0.35097301  0.01274834  0.63179986    -0.18600
C1416       C  0.33852095  0.99456293  0.62314357    -0.23400
C1417       C  0.32076264  0.99572527  0.59950570     0.27000
C1418       C  0.31554214  0.97618127  0.58269207    -0.20100
C1419       C  0.29978111  0.97695307  0.55932087    -0.09800
C1420       C  0.28865595  0.99720705  0.55266068    -0.10300
C1421       C  0.29317593  0.01652278  0.57011323    -0.03200
C1422       C  0.30905313  0.01584193  0.59328687    -0.18400
H1423       H  0.41959889  0.04035388  0.66670652     0.10700
H1424       H  0.38621453  0.04174872  0.63465360     0.10800
H1425       H  0.35906714  0.98203438  0.67793955     0.10500
H1426       H  0.39257533  0.98078115  0.71023435     0.11600
H1427       H  0.34824804  0.02890774  0.62092341     0.11700
H1428       H  0.34261691  0.97794359  0.63182198     0.13600
H1429       H  0.32407209  0.96039970  0.58720738     0.10100
H1430       H  0.29631161  0.96180389  0.54630939     0.12200
H1431       H  0.28470439  0.03228279  0.56534419     0.08800
H1432       H  0.31198903  0.03107303  0.60629991     0.11500
C1433       C  0.77804567  0.01898275  0.94537047    -0.03100
C1434       C  0.78226606  0.03908778  0.92965314    -0.05700
C1435       C  0.79793337  0.03949326  0.90631963    -0.20800
C1436       C  0.81013331  0.01998109  0.89905051     0.25000
C1437       C  0.80486972  0.99948894  0.91370431    -0.18300
C1438       C  0.78888575  0.99902624  0.93672799    -0.08300
C1439       C  0.82921337  0.02205854  0.87769567    -0.18600
C1440       C  0.84840585  0.01020890  0.88095789    -0.23400
C1441       C  0.86927981  0.01407968  0.86309450     0.27000
C1442       C  0.88588992  0.99728099  0.86326630    -0.20100
C1443       C  0.90634169  0.00053464  0.84819872    -0.09800
C1444       C  0.91078701  0.02083574  0.83281091    -0.10300
C1445       C  0.89422395  0.03774371  0.83269788    -0.03200
C1446       C  0.87369702  0.03444466  0.84769039    -0.18400
H1447       H  0.77414781  0.05467354  0.93632223     0.10700
H1448       H  0.80155323  0.05540674  0.89518425     0.10800
H1449       H  0.81350140  0.98398829  0.90800475     0.10500
H1450       H  0.78181877  0.99317666  0.44803623     0.11600
H1451       H  0.82807655  0.03507915  0.86074229     0.11700
H1452       H  0.84930124  0.99746749  0.89836024     0.13600
H1453       H  0.88305553  0.98155236  0.87520417     0.10100
H1454       H  0.91872961  0.98715736  0.84878422     0.12200
H1455       H  0.89713124  0.05358903  0.82108123     0.08800
H1456       H  0.86172002  0.04814578  0.84769474     0.11500
C1457       C  0.71800917  0.01928166  0.52554714    -0.03100
C1458       C  0.69622608  0.02362640  0.51459804    -0.05700
C1459       C  0.67723234  0.02017393  0.53282362    -0.20800
C1460       C  0.67964675  0.01213761  0.56218167     0.25000
C1461       C  0.70155298  0.00762548  0.57290068    -0.18300
C1462       C  0.72046127  0.01119275  0.55476694    -0.08300
C1463       C  0.65929935  0.01028816  0.58171999    -0.17000
C1464       C  0.65839064  0.99684635  0.60605472    -0.23400
C1465       C  0.63943947  0.99604290  0.62806234     0.27000
C1466       C  0.64228393  0.98290210  0.65389280    -0.20100
C1467       C  0.62553561  0.98192081  0.67586897    -0.09800
C1468       C  0.60541542  0.99412058  0.67264632    -0.10300
C1469       C  0.60239118  0.00717395  0.64673872    -0.03200
C1470       C  0.61914749  0.00810592  0.62464528    -0.18400
H1471       H  0.69396782  0.03042999  0.49237159     0.10700
H1472       H  0.66062606  0.02412254  0.52413321     0.10800
H1473       H  0.70437428  0.00223882  0.59564154     0.10500
H1474       H  0.73714947  0.00806925  0.56380452     0.11600
H1475       H  0.64494575  0.02057058  0.57571069     0.11700
H1476       H  0.67260084  0.98591539  0.61067488     0.13600
H1477       H  0.65767437  0.97343230  0.65725806     0.10100
H1478       H  0.62843756  0.97166668  0.69549612     0.12200
H1479       H  0.58697400  0.01659513  0.64341351     0.08800
H1480       H  0.61593364  0.01829299  0.60514383     0.11500
C1481       C  0.73005916  0.99929306  0.95874138    -0.03100
C1482       C  0.71909488  0.97897649  0.96671443    -0.05700
C1483       C  0.70274061  0.96920946  0.94799542    -0.20800
C1484       C  0.69713099  0.97934366  0.92067268     0.25000
C1485       C  0.70879817  0.99929828  0.91214473    -0.18300
C1486       C  0.72512515  0.00910589  0.93101512    -0.08300
C1487       C  0.67780366  0.96955068  0.90329738    -0.18600
C1488       C  0.67272158  0.97521092  0.87493707    -0.23400
C1489       C  0.65176605  0.96749141  0.85911652     0.27000
C1490       C  0.65041859  0.97043507  0.82805964    -0.20100
C1491       C  0.63028607  0.96575422  0.81264325    -0.09800
C1492       C  0.61092494  0.95805592  0.82797287    -0.10300
C1493       C  0.61246985  0.95431504  0.85889195    -0.03200
C1494       C  0.63256855  0.95908742  0.87433320    -0.18400
H1495       H  0.72282447  0.97958451  0.49059670     0.10700
H1496       H  0.69408671  0.95388842  0.95521293     0.10800
H1497       H  0.70480258  0.00803468  0.89167338     0.10500
H1498       H  0.73316320  0.02492494  0.92456124     0.11600
H1499       H  0.66727010  0.95719157  0.91477114     0.11700
H1500       H  0.68420937  0.98611093  0.86254035     0.13600
H1501       H  0.66484221  0.97697531  0.81574641     0.10100
H1502       H  0.62969914  0.96890509  0.78884066     0.12200
H1503       H  0.59783308  0.94862537  0.87146396     0.08800
H1504       H  0.63248204  0.95709226  0.89830685     0.11500
C1505       C  0.98092651  0.12201539  0.81238325    -0.03100
C1506       C  0.96148822  0.12346981  0.83035452    -0.05700
C1507       C  0.96009080  0.13993864  0.85283603    -0.20800
C1508       C  0.97830147  0.15486086  0.85831598     0.25000
C1509       C  0.99748251  0.15383827  0.83980480    -0.18300
C1510       C  0.99872545  0.13765422  0.81700576    -0.08300
C1511       C  0.97660794  0.17189272  0.88267862    -0.18600
C1512       C  0.99479840  0.17913116  0.89839289    -0.23400
C1513       C  0.99440009  0.19799036  0.92053851     0.27000
C1514       C  0.01289134  0.20085516  0.94007302    -0.20100
C1515       C  0.01499488  0.22033422  0.95786776    -0.09800
C1516       C  0.99870898  0.23735067  0.95616737    -0.10300
C1517       C  0.97967280  0.23404979  0.93785558    -0.03200
C1518       C  0.97743715  0.21454478  0.92029285    -0.18400
H1519       H  0.94743614  0.11174388  0.82720059     0.10700
H1520       H  0.94497663  0.14067568  0.86645738     0.10800
H1521       H  0.01149405  0.16562441  0.84277101     0.10500
H1522       H  0.01390996  0.13699210  0.80352434     0.11600
H1523       H  0.95988483  0.17803849  0.88815461     0.11700
H1524       H  0.01099230  0.17111132  0.89449503     0.13600
H1525       H  0.02625180  0.18844453  0.94060351     0.10100
H1526       H  0.02999428  0.22275126  0.97149497     0.12200
H1527       H  0.96704142  0.24714436  0.93606803     0.08800
H1528       H  0.96314461  0.21332906  0.90526356     0.11500
C1529       C  0.01431221  0.24641054  0.52789016    -0.03100
C1530       C  0.03211355  0.24687681  0.54877101    -0.05700
C1531       C  0.03301761  0.23083770  0.57170983    -0.20800
C1532       C  0.01644934  0.21369225  0.57382170     0.25000
C1533       C  0.99849384  0.21335010  0.55314503    -0.18300
C1534       C  0.99739263  0.22961970  0.53052907    -0.08300
C1535       C  0.01831216  0.19623505  0.59754358    -0.18600
C1536       C  0.01288429  0.17437241  0.59231211    -0.23400
C1537       C  0.01634616  0.15595688  0.61428763     0.27000
C1538       C  0.02247173  0.13457779  0.60356536    -0.20100
C1539       C  0.02494387  0.11637395  0.62305066    -0.09800
C1540       C  0.02085063  0.11891846  0.65382998    -0.10300
C1541       C  0.01467718  0.14039980  0.66469443    -0.03200
C1542       C  0.01261152  0.15883594  0.64510372    -0.18400
H1543       H  0.04548083  0.25951159  0.54709808     0.10700
H1544       H  0.04698688  0.23147255  0.58739531     0.10800
H1545       H  0.98514653  0.20067417  0.55466783     0.10500
H1546       H  0.98320191  0.22921259  0.51522862     0.11600
H1547       H  0.02610010  0.20102902  0.61866728     0.11700
H1548       H  0.00741356  0.16938108  0.57003373     0.13600
H1549       H  0.02534005  0.13193036  0.57991866     0.10100
H1550       H  0.02957147  0.10010301  0.61376702     0.12200
H1551       H  0.01123840  0.14289412  0.68821696     0.08800
H1552       H  0.00745537  0.17509184  0.65389590     0.11500
C1553       C  0.99393072  0.42646035  0.65137536    -0.03100
C1554       C  0.97532875  0.41172014  0.64717712    -0.05700
C1555       C  0.97807131  0.39068340  0.63325051    -0.20800
C1556       C  0.99944556  0.38375126  0.62333630     0.25000
C1557       C  0.01808646  0.39856885  0.62740230    -0.18300
C1558       C  0.01533785  0.41961773  0.64132669    -0.08300
C1559       C  0.00111426  0.36166828  0.60729065    -0.18600
C1560       C  0.02071294  0.35122470  0.60097470    -0.23400
C1561       C  0.02164649  0.33145371  0.58049962     0.27000
C1562       C  0.03951438  0.33030564  0.55999480    -0.20100
C1563       C  0.03905866  0.31420184  0.53707904    -0.09800
C1564       C  0.02109367  0.29853624  0.53489588    -0.10300
C1565       C  0.00421518  0.29833793  0.55688306    -0.03200
C1566       C  0.00440972  0.31477587  0.57951014    -0.18400
H1567       H  0.95859368  0.41643208  0.65460812     0.10700
H1568       H  0.96336764  0.37977603  0.63014354     0.10800
H1569       H  0.03475995  0.39438076  0.61939826     0.10500
H1570       H  0.03002905  0.43058397  0.64409344     0.11600
H1571       H  0.98537732  0.35417670  0.59917288     0.11700
H1572       H  0.03672152  0.35849374  0.60825637     0.13600
H1573       H  0.05306116  0.34284377  0.56049674     0.10100
H1574       H  0.05215482  0.31465132  0.52017175     0.12200
H1575       H  0.99011942  0.28647684  0.55537737     0.08800
H1576       H  0.99071962  0.31489732  0.59554954     0.11500
C1577       C  0.99198928  0.80941759  0.51946177    -0.03100
C1578       C  0.97879030  0.80934127  0.54544016    -0.05700
C1579       C  0.97942727  0.82776832  0.56496179    -0.20800
C1580       C  0.99372372  0.84638191  0.55930380     0.25000
C1581       C  0.00632586  0.84692413  0.53262698    -0.18300
C1582       C  0.00538542  0.82852948  0.51274653    -0.08300
C1583       C  0.99537229  0.86440097  0.58232755    -0.18600
C1584       C  0.01461398  0.87603422  0.58825938    -0.23400
C1585       C  0.01684771  0.89186194  0.61401477     0.27000
C1586       C  0.03287280  0.90958483  0.61281301    -0.20100
C1587       C  0.03482381  0.92519783  0.63631637    -0.09800
C1588       C  0.02093659  0.92319554  0.66168700    -0.10300
C1589       C  0.00572324  0.90474751  0.66349820    -0.03200
C1590       C  0.00373775  0.88923506  0.64002178    -0.18400
H1591       H  0.96838657  0.79470483  0.55099093     0.10700
H1592       H  0.96944887  0.82704970  0.58523096     0.10800
H1593       H  0.01706701  0.86133712  0.52730310     0.10500
H1594       H  0.01581076  0.82879917  0.49287067     0.11600
H1595       H  0.98061847  0.86680453  0.59633778     0.11700
H1596       H  0.02932757  0.87376277  0.57410967     0.13600
H1597       H  0.04347984  0.91171387  0.59328270     0.10100
H1598       H  0.04676885  0.93917007  0.63423762     0.12200
H1599       H  0.99489714  0.90254745  0.68279767     0.08800
H1600       H  0.99195113  0.87519765  0.64247860     0.11500
C1601       C  0.98682150  0.80152408  0.95756351    -0.03100
C1602       C  0.96756013  0.81511086  0.95870075    -0.05700
C1603       C  0.96454839  0.83249883  0.93801114    -0.20800
C1604       C  0.98080179  0.83686880  0.91579460     0.25000
C1605       C  0.99997514  0.82283578  0.91434242    -0.18300
C1606       C  0.00282232  0.80523631  0.93495721    -0.08300
C1607       C  0.97739082  0.85691712  0.89601900    -0.18600
C1608       C  0.99052122  0.86245163  0.87243096    -0.23400
C1609       C  0.98744300  0.88340868  0.85431910     0.27000
C1610       C  0.99684648  0.88438381  0.82555384    -0.20100
C1611       C  0.99527207  0.90405504  0.80828956    -0.09800
C1612       C  0.98444603  0.92339968  0.81952094    -0.10300
C1613       C  0.97498795  0.92244933  0.84829971    -0.03200
C1614       C  0.97649253  0.90274876  0.86552549    -0.18400
H1615       H  0.95504829  0.81246104  0.97602941     0.10700
H1616       H  0.94963628  0.84292181  0.93981016     0.10800
H1617       H  0.01316153  0.82560334  0.89804425     0.10500
H1618       H  0.01794108  0.79506356  0.93404640     0.11600
H1619       H  0.96312154  0.86759480  0.90132826     0.11700
H1620       H  0.00387562  0.85118444  0.86547963     0.13600
H1621       H  0.00556950  0.86987747  0.81642794     0.10100
H1622       H  0.00289956  0.90421361  0.78631058     0.12200
H1623       H  0.96666356  0.93706999  0.85774303     0.08800
H1624       H  0.96962709  0.90309733  0.88788329     0.11500
C1625       C  0.99473719  0.74928781  0.95024936    -0.03100
C1626       C  0.97509121  0.74802434  0.93267554    -0.05700
C1627       C  0.97236560  0.73054442  0.91159247    -0.20800
C1628       C  0.98934237  0.71430290  0.90754370     0.25000
C1629       C  0.00951106  0.71651631  0.92417756    -0.18300
C1630       C  0.01211945  0.73380630  0.94522079    -0.08300
C1631       C  0.98478014  0.69399242  0.88844109    -0.18600
C1632       C  0.00154798  0.68144606  0.87686144    -0.23400
C1633       C  0.99855101  0.65928517  0.86126750     0.27000
C1634       C  0.01739512  0.65054492  0.84642731    -0.20100
C1635       C  0.01651506  0.62919316  0.83316304    -0.09800
C1636       C  0.99668717  0.61576706  0.83426486    -0.10300
C1637       C  0.97760085  0.62446545  0.84890823    -0.03200
C1638       C  0.97852946  0.64601973  0.86244197    -0.18400
H1639       H  0.96124694  0.75949750  0.93674128     0.10700
H1640       H  0.95660653  0.72915112  0.89930441     0.10800
H1641       H  0.02277700  0.70410858  0.92264652     0.10500
H1642       H  0.02722651  0.73426444  0.95896911     0.11600
H1643       H  0.96726089  0.68918851  0.88442762     0.11700
H1644       H  0.01882997  0.68769992  0.87888287     0.13600
H1645       H  0.03307735  0.66022154  0.84529620     0.10100
H1646       H  0.03156556  0.62323313  0.82197835     0.12200
H1647       H  0.96210062  0.61453828  0.85020725     0.08800
H1648       H  0.96376312  0.65189941  0.87424870     0.11500
loop_ 
_geom_bond_atom_site_label_1 
_geom_bond_atom_site_label_2 
_geom_bond_distance 
_geom_bond_site_symmetry_2 
_ccdc_geom_bond_type 
N1            C2   1.356       .  A
N1          C829   1.358       .  A
N1          C777   1.441       .  S
C2          C801   1.469       .  S
C2          C827   1.380       .  A
C3            C4   1.372       .  A
C3          C826   1.383   1_554  A
C3            H6   1.082   1_655  S
C4            C5   1.381       .  A
C4            H7   1.082       .  S
C5          N825   1.356   1_554  A
C5          C753   1.473       .  S
N8            C9   1.360       .  A
N8          C836   1.360       .  A
N8          C705   1.447   1_556  S
C9          C740   1.475   1_556  S
C9          C834   1.382       .  A
C10          C11   1.371       .  A
C10         C833   1.381       .  A
C10          H13   1.082       .  S
C11          C12   1.382       .  A
C11          H14   1.082       .  S
C12         N832   1.361       .  A
C12         C692   1.478       .  S
N15          C16   1.357       .  A
N15         C843   1.359       .  A
N15         C657   1.441       .  S
C16         C609   1.475       .  S
C16         C841   1.381       .  A
C17          C18   1.375   1_556  A
C17         C840   1.381       .  A
C17          H20   1.082   1_556  S
C18          C19   1.382       .  A
C18          H21   1.082       .  S
C19         N839   1.357   1_554  A
C19         C633   1.475       .  S
N22          C23   1.362       .  A
N22         C850   1.361   1_545  A
N22         C596   1.443   1_545  S
C23         C548   1.480       .  S
C23         C848   1.382       .  A
C24          C25   1.369   1_545  A
C24         C847   1.382       .  A
C24          H27   1.082       .  S
C25          C26   1.382       .  A
C25          H28   1.082       .  S
C26         N846   1.359       .  A
C26         C561   1.479       .  S
N29          C30   1.358       .  A
N29         C857   1.360       .  A
N29         C524   1.443       .  S
C30         C476   1.477       .  S
C30         C855   1.382       .  A
C31          C32   1.371       .  A
C31         C854   1.382   1_554  A
C31          H34   1.082       .  S
C32          C33   1.381       .  A
C32          H35   1.082       .  S
C33         N853   1.361   1_554  A
C33         C500   1.477       .  S
N36          C37   1.361       .  A
N36         C864   1.360   1_554  A
N36         C452   1.443       .  S
C37         C393   1.480       .  S
C37         C862   1.384   1_554  A
C38          C39   1.371       .  A
C38         C861   1.384       .  A
C38          H41   1.082       .  S
C39          C40   1.381       .  A
C39          H42   1.082       .  S
C40         N860   1.358       .  A
C40         C428   1.476       .  S
N43          C44   1.360       .  A
N43         C871   1.361   1_554  A
N43         C345   1.440       .  S
C44         C380   1.481       .  S
C44         C869   1.381   1_554  A
C45          C46   1.369       .  A
C45         C868   1.382       .  A
C45          H48   1.082       .  S
C46          C47   1.383       .  A
C46          H49   1.082       .  S
C47         N867   1.359       .  A
C47         C321   1.478       .  S
N50          C51   1.359       .  A
N50         C878   1.359       .  A
N50         C284   1.443       .  S
C51         C308   1.477       .  S
C51         C876   1.382       .  A
C52          C53   1.372   1_556  A
C52         C875   1.381       .  A
C52          H55   1.082   1_556  S
C53          C54   1.382       .  A
C53          H56   1.082       .  S
C54         N874   1.359   1_554  A
C54         C249   1.476       .  S
O57         Mg59   2.133       .  S
O57         Mg65   2.149       .  S
O57          C92   1.237       .  S
C58          H97   1.081       .  S
C58          O71   1.238       .  S
C58          O95   1.271       .  A
Mg59         O88   2.139       .  S
Mg59        O103   2.301       .  S
Mg59         O99   2.271       .  S
Mg59         O70   2.301       .  S
O60        Mg102   2.142       .  S
O60         Mg85   2.126       .  S
O60          C81   1.238       .  S
O61          C92   1.271       .  A
O61         Mg85   2.296       .  S
C62         C417   1.476       .  S
C62          O64   1.271       .  A
C62          O76   1.275       .  A
O63          C91   1.272       .  A
O63         Mg65   2.298       .  S
O64         Mg96   2.242       .  S
Mg65         O71   2.147       .  S
Mg65         O79   2.278       .  S
Mg65         O67   2.308       .  S
C66         C297   1.485       .  S
C66         O104   1.273       .  A
C66          O72   1.277       .  A
O67          C74   1.276       .  A
H68          C81   1.081       .  S
C69          H94   1.081       .  S
C69          O83   1.239       .  S
C69          O84   1.274       .  A
O70          C93   1.271       .  A
O71         Mg85   2.152       .  S
O72        Mg102   2.315       .  S
C73         C513   1.483       .  S
C73          O86   1.273       .  A
C73          O78   1.277       .  A
C74         C489   1.480       .  S
C74         O101   1.273       .  A
Mg75         O82   2.142       .  S
Mg75         O83   2.139       .  S
Mg75         O76   2.312       .  S
Mg75         O77   2.300       .  S
Mg75        O104   2.266       .  S
O77          C81   1.272       .  A
O78         Mg85   2.318       .  S
O79          C98   1.274       .  A
O80         C100   1.278       .  A
O80         Mg96   2.330       .  S
O82         Mg96   2.133       .  S
O82          C93   1.237       .  S
O83        Mg102   2.137       .  S
O84         Mg96   2.310       .  S
Mg85        O101   2.253       .  S
O86        Mg102   2.266       .  S
H87          C92   1.081       .  S
O88         Mg96   2.128       .  S
O88          C91   1.238       .  S
H89          C91   1.081       .  S
H90          C93   1.081       .  S
O95        Mg102   2.300       .  S
C98         C369   1.485       .  S
C98         O103   1.276       .  A
O99         C100   1.274       .  A
C100        C441   1.488       .  S
O105       Mg107   2.141   1_565  S
O105       Mg113   2.142   1_565  S
O105        C140   1.239       .  S
C106        H145   1.081       .  S
C106        O119   1.238   1_545  S
C106        O143   1.271   1_545  A
Mg107       O136   2.138       .  S
Mg107       O151   2.323       .  S
Mg107       O147   2.254       .  S
Mg107       O118   2.304   1_545  S
O108       Mg150   2.151       .  S
O108       Mg133   2.135       .  S
O108        C129   1.238       .  S
O109        C140   1.273       .  A
O109       Mg133   2.303       .  S
C110        C572   1.481       .  S
C110        O112   1.275       .  A
C110        O124   1.275       .  A
O111        C139   1.272       .  A
O111       Mg113   2.303       .  S
O112       Mg144   2.283       .  S
Mg113       O119   2.129   1_545  S
Mg113       O127   2.249       .  S
Mg113       O115   2.316       .  S
C114        C465   1.487       .  S
C114        O152   1.274       .  A
C114        O120   1.277       .  A
O115        C122   1.276   1_545  A
H116        C129   1.081       .  S
C117        H142   1.081       .  S
C117        O131   1.238       .  S
C117        O132   1.272       .  A
O118        C141   1.272       .  A
O119       Mg133   2.140       .  S
O120       Mg150   2.315       .  S
C121        C668   1.482       .  S
C121        O134   1.273       .  A
C121        O126   1.276       .  A
C122        C644   1.484       .  S
C122        O149   1.273       .  A
Mg123       O130   2.142       .  S
Mg123       O131   2.141       .  S
Mg123       O124   2.300       .  S
Mg123       O125   2.296       .  S
Mg123       O152   2.274       .  S
O125        C129   1.272       .  A
O126       Mg133   2.301       .  S
O127        C146   1.272       .  A
O128        C148   1.279       .  A
O128       Mg144   2.334   1_545  S
O130       Mg144   2.142       .  S
O130        C141   1.238       .  S
O131       Mg150   2.128       .  S
O132       Mg144   2.301       .  S
Mg133       O149   2.268       .  S
O134       Mg150   2.265       .  S
H135        C140   1.081       .  S
O136       Mg144   2.146   1_545  S
O136        C139   1.237       .  S
H137        C139   1.081       .  S
H138        C141   1.081       .  S
O143       Mg150   2.299       .  S
C146        C404   1.484       .  S
C146        O151   1.277       .  A
O147        C148   1.272       .  A
C148        C585   1.480       .  S
O153       Mg155   2.132       .  S
O153       Mg161   2.140   1_545  S
O153        C188   1.238   1_455  S
C154        H193   1.081       .  S
C154        O167   1.237       .  S
C154        O191   1.270       .  A
Mg155       O184   2.139       .  S
Mg155       O199   2.325       .  S
Mg155       O195   2.253       .  S
Mg155       O166   2.303   1_455  S
O156       Mg198   2.149   1_565  S
O156       Mg181   2.130       .  S
O156        C177   1.238   1_565  S
O157        C188   1.272   1_565  A
O157       Mg181   2.300       .  S
C158        C681   1.484       .  S
C158        O160   1.276       .  A
C158        O172   1.277       .  A
O159        C187   1.273       .  A
O159       Mg161   2.304   1_545  S
O160       Mg192   2.279   1_655  S
Mg161       O167   2.127       .  S
Mg161       O175   2.252   1_565  S
Mg161       O163   2.312       .  S
C162        C620   1.487       .  S
C162        O200   1.275       .  A
C162        O168   1.276       .  A
O163        C170   1.276       .  A
H164        C177   1.081   1_565  S
C165        H190   1.081       .  S
C165        O179   1.238   1_455  S
C165        O180   1.272       .  A
O166        C189   1.272       .  A
O167       Mg181   2.139   1_455  S
O168       Mg198   2.305       .  S
C169        C788   1.486       .  S
C169        O182   1.274       .  A
C169        O174   1.276       .  A
C170        C764   1.482       .  S
C170        O197   1.272       .  A
Mg171       O178   2.144       .  S
Mg171       O179   2.150       .  S
Mg171       O172   2.307       .  S
Mg171       O173   2.296       .  S
Mg171       O200   2.279       .  S
O173        C177   1.271       .  A
O174       Mg181   2.304       .  S
O175        C194   1.272       .  A
O176        C196   1.281       .  A
O176       Mg192   2.350       .  S
O178       Mg192   2.148   1_655  S
O178        C189   1.238       .  S
O179       Mg198   2.142       .  S
O180       Mg192   2.304       .  S
Mg181       O197   2.255   1_655  S
O182       Mg198   2.278   1_565  S
H183        C188   1.081       .  S
O184       Mg192   2.144       .  S
O184        C187   1.239       .  S
H185        C187   1.081       .  S
H186        C189   1.081       .  S
O191       Mg198   2.295   1_465  S
C194        C537   1.485       .  S
C194        O199   1.278       .  A
O195        C196   1.273       .  A
C196        C716   1.490       .  S
O201       Mg203   2.139   1_655  S
O201       Mg209   2.140       .  S
O201        C236   1.239       .  S
C202        H241   1.081       .  S
C202        O215   1.237       .  S
C202        O239   1.271       .  A
Mg203       O232   2.141       .  S
Mg203       O247   2.300       .  S
Mg203       O243   2.261       .  S
Mg203       O214   2.297       .  S
O204       Mg246   2.136       .  S
O204       Mg229   2.139       .  S
O204        C225   1.239       .  S
O205        C236   1.273       .  A
O205       Mg229   2.306       .  S
C206        C332   1.477       .  S
C206        O208   1.272       .  A
C206        O220   1.274       .  A
O207        C235   1.273   1_655  A
O207       Mg209   2.301       .  S
O208       Mg240   2.268       .  S
Mg209       O215   2.130       .  S
Mg209       O223   2.261       .  S
Mg209       O211   2.299       .  S
C210        C812   1.478       .  S
C210        O248   1.270   1_655  A
C210        O216   1.276       .  A
O211        C218   1.275       .  A
H212        C225   1.081       .  S
C213        H238   1.081       .  S
C213        O227   1.238       .  S
C213        O228   1.273       .  A
O214        C237   1.270       .  A
O215       Mg229   2.141       .  S
O216       Mg246   2.321       .  S
C217        C273   1.488       .  S
C217        O230   1.273       .  A
C217        O222   1.280       .  A
C218        C260   1.486       .  S
C218        O245   1.275       .  A
Mg219       O226   2.125       .  S
Mg219       O227   2.132       .  S
Mg219       O220   2.293       .  S
Mg219       O221   2.304   1_455  S
Mg219       O248   2.244       .  S
O221        C225   1.273       .  A
O222       Mg229   2.344       .  S
O223        C242   1.272       .  A
O224        C244   1.278       .  A
O224       Mg240   2.325       .  S
O226       Mg240   2.139       .  S
O226        C237   1.236       .  S
O227       Mg246   2.141   1_455  S
O228       Mg240   2.310       .  S
Mg229       O245   2.281       .  S
O230       Mg246   2.252       .  S
H231        C236   1.081       .  S
O232       Mg240   2.131       .  S
O232        C235   1.239       .  S
H233        C235   1.081       .  S
H234        C237   1.081       .  S
O239       Mg246   2.298       .  S
C242        C729   1.481       .  S
C242        O247   1.274   1_655  A
O243        C244   1.273       .  A
C244        C356   1.485       .  S
C249        C250   1.401       .  A
C249        C254   1.402       .  A
C250        C251   1.396       .  A
C250        H263   1.083       .  S
C251        C252   1.403       .  A
C251        H264   1.083       .  S
C252        C253   1.411       .  A
C252        C255   1.489       .  S
C253        C254   1.403       .  A
C253        H265   1.081       .  S
C254        H266   1.083   1_554  S
C255        C256   1.348       .  D
C255        H267   1.085       .  S
C256        C257   1.488       .  S
C256        H268   1.085       .  S
C257        C258   1.402       .  A
C257        C262   1.409       .  A
C258        C259   1.398       .  A
C258        H269   1.083       .  S
C259        C260   1.408       .  A
C259        H270   1.083       .  S
C260        C261   1.406       .  A
C261        C262   1.400       .  A
C261        H271   1.083       .  S
C262        H272   1.082       .  S
C273        C274   1.406       .  A
C273        C278   1.406       .  A
C274        C275   1.396       .  A
C274        H287   1.083       .  S
C275        C276   1.404       .  A
C275        H288   1.084       .  S
C276        C277   1.411       .  A
C276        C279   1.494       .  S
C277        C278   1.405       .  A
C277        H289   1.080       .  S
C278        H290   1.083       .  S
C279        C280   1.350       .  D
C279        H291   1.085       .  S
C280        C281   1.493       .  S
C280        H292   1.083       .  S
C281        C282   1.405       .  A
C281        C286   1.409       .  A
C282        C283   1.401       .  A
C282        H293   1.083       .  S
C283        C284   1.404       .  A
C283        H294   1.082       .  S
C284        C285   1.404       .  A
C285        C286   1.399       .  A
C285        H295   1.082       .  S
C286        H296   1.081       .  S
C297        C298   1.406       .  A
C297        C302   1.406       .  A
C298        C299   1.400       .  A
C298        H311   1.083       .  S
C299        C300   1.405       .  A
C299        H312   1.084       .  S
C300        C301   1.410       .  A
C300        C303   1.494       .  S
C301        C302   1.399       .  A
C301        H313   1.080       .  S
C302        H314   1.083       .  S
C303        C304   1.349       .  D
C303        H315   1.086       .  S
C304        C305   1.486       .  S
C304        H316   1.083       .  S
C305        C306   1.402       .  A
C305        C310   1.409       .  A
C306        C307   1.396       .  A
C306        H317   1.084       .  S
C307        C308   1.402       .  A
C307        H318   1.083       .  S
C308        C309   1.403       .  A
C309        C310   1.403       .  A
C309       H1143   1.083       .  S
C310        H320   1.082       .  S
H319       C1133   1.083       .  S
C321        C322   1.404       .  A
C321        C326   1.404       .  A
C322        C323   1.393       .  A
C322        H335   1.083       .  S
C323        C324   1.399       .  A
C323        H336   1.084       .  S
C324        C325   1.409       .  A
C324        C327   1.479       .  S
C325        C326   1.401       .  A
C325        H337   1.082       .  S
C326        H338   1.082       .  S
C327        C328   1.340       .  D
C327        H339   1.087       .  S
C328        C329   1.479       .  S
C328        H340   1.086       .  S
C329        C330   1.400       .  A
C329        C334   1.407       .  A
C330        C331   1.396       .  A
C330        H341   1.083       .  S
C331        C332   1.406       .  A
C331        H342   1.083       .  S
C332        C333   1.405       .  A
C333        C334   1.398       .  A
C333        H343   1.083       .  S
C334        H344   1.083       .  S
C345        C346   1.402       .  A
C345        C350   1.403       .  A
C346        C347   1.398       .  A
C346       H1183   1.083       .  S
C347        C348   1.403       .  A
C347        H360   1.083       .  S
C348        C349   1.409       .  A
C348        C351   1.486       .  S
C349        C350   1.402       .  A
C349        H361   1.082       .  S
C350        H362   1.083       .  S
C351        C352   1.347       .  D
C351        H363   1.086       .  S
C352        C353   1.488       .  S
C352        H364   1.086       .  S
C353        C354   1.404       .  A
C353        C358   1.407       .  A
C354        C355   1.401       .  A
C354        H365   1.083       .  S
C355        C356   1.406       .  A
C355        H366   1.083       .  S
C356        C357   1.407       .  A
C357        C358   1.399       .  A
C357        H367   1.083       .  S
C358        H368   1.082       .  S
H359       C1170   1.083       .  S
C369        C370   1.407       .  A
C369        C374   1.407       .  A
C370        C371   1.397       .  A
C370        H383   1.083       .  S
C371        C372   1.403       .  A
C371        H384   1.083       .  S
C372        C373   1.408       .  A
C372        C375   1.487       .  S
C373        C374   1.401       .  A
C373        H385   1.082       .  S
C374        H386   1.083       .  S
C375        C376   1.350       .  D
C375        H387   1.082       .  S
C376        C377   1.495       .  S
C376        H388   1.086       .  S
C377        C378   1.408       .  A
C377        C382   1.410       .  A
C378        C379   1.401       .  A
C378        H389   1.083       .  S
C379        C380   1.402       .  A
C379       H1214   1.083       .  S
C380        C381   1.403       .  A
C381        C382   1.396       .  A
C381        H391   1.083       .  S
C382        H392   1.079       .  S
H390       C1203   1.083       .  S
C393        C394   1.404       .  A
C393        C398   1.403       .  A
C394        C395   1.405       .  A
C394        H407   1.083       .  S
C395        C396   1.407       .  A
C395        H408   1.083       .  S
C396        C397   1.406       .  A
C396        C399   1.489       .  S
C397        C398   1.392       .  A
C397        H409   1.081       .  S
C398        H410   1.084       .  S
C399        C400   1.348       .  D
C399        H411   1.085       .  S
C400        C401   1.486       .  S
C400        H412   1.086       .  S
C401        C402   1.402       .  A
C401        C406   1.409       .  A
C402        C403   1.394       .  A
C402        H413   1.084       .  S
C403        C404   1.406       .  A
C403        H414   1.083       .  S
C404        C405   1.407       .  A
C405        C406   1.403       .  A
C405        H415   1.083       .  S
C406        H416   1.081       .  S
C417        C418   1.403       .  A
C417        C422   1.406       .  A
C418        C419   1.392       .  A
C418        H431   1.083       .  S
C419        C420   1.402       .  A
C419        H432   1.084       .  S
C420        C421   1.408       .  A
C420        C423   1.483       .  S
C421        C422   1.401       .  A
C421        H433   1.080       .  S
C422        H434   1.083       .  S
C423        C424   1.347       .  D
C423        H435   1.087       .  S
C424        C425   1.482       .  S
C424        H436   1.084       .  S
C425        C426   1.403       .  A
C425        C430   1.406       .  A
C426        C427   1.401       .  A
C426        H437   1.083       .  S
C427        C428   1.405       .  A
C427        H438   1.083       .  S
C428        C429   1.401       .  A
C429        C430   1.393       .  A
C429        H439   1.083       .  S
C430        H440   1.083       .  S
C441        C442   1.405       .  A
C441        C446   1.408       .  A
C442        C443   1.398       .  A
C442        H455   1.083       .  S
C443        C444   1.405       .  A
C443        H456   1.083       .  S
C444        C445   1.409       .  A
C444        C447   1.493       .  S
C445        C446   1.405       .  A
C445        H457   1.081       .  S
C446        H458   1.083       .  S
C447        C448   1.352       .  D
C447        H459   1.082       .  S
C448        C449   1.500       .  S
C448        H460   1.085       .  S
C449        C450   1.409       .  A
C449        C454   1.411       .  A
C450        C451   1.403       .  A
C450        H461   1.083       .  S
C451        C452   1.403       .  A
C451        H462   1.083       .  S
C452        C453   1.402       .  A
C453        C454   1.398       .  A
C453        H463   1.083       .  S
C454        H464   1.078       .  S
C465        C466   1.406       .  A
C465        C470   1.408       .  A
C466        C467   1.399       .  A
C466        H479   1.083       .  S
C467        C468   1.404       .  A
C467        H480   1.083       .  S
C468        C469   1.407       .  A
C468        C471   1.489       .  S
C469        C470   1.401       .  A
C469        H481   1.082       .  S
C470        H482   1.083       .  S
C471        C472   1.352       .  D
C471        H483   1.083       .  S
C472        C473   1.494       .  S
C472        H484   1.085       .  S
C473        C474   1.408       .  A
C473        C478   1.409       .  A
C474        C475   1.403       .  A
C474        H485   1.083       .  S
C475        C476   1.402       .  A
C475        H486   1.083       .  S
C476        C477   1.401       .  A
C477        C478   1.396       .  A
C477        H487   1.083       .  S
C478        H488   1.080       .  S
C489        C490   1.407       .  A
C489        C494   1.406       .  A
C490        C491   1.400       .  A
C490        H503   1.083       .  S
C491        C492   1.403       .  A
C491        H504   1.083       .  S
C492        C493   1.404       .  A
C492        C495   1.480       .  S
C493        C494   1.395       .  A
C493        H505   1.083       .  S
C494        H506   1.083       .  S
C495        C496   1.346       .  D
C495        H507   1.086       .  S
C496        C497   1.481       .  S
C496        H508   1.087       .  S
C497        C498   1.404       .  A
C497        C502   1.406       .  A
C498        C499   1.399       .  A
C498        H509   1.083       .  S
C499        C500   1.402       .  A
C499        H510   1.083       .  S
C500        C501   1.403       .  A
C501        C502   1.396       .  A
C501        H511   1.083       .  S
C502        H512   1.082       .  S
C513        C514   1.406       .  A
C513        C518   1.406       .  A
C514        C515   1.401       .  A
C514        H527   1.083       .  S
C515        C516   1.403       .  A
C515        H528   1.083       .  S
C516        C517   1.406       .  A
C516        C519   1.485       .  S
C517        C518   1.398       .  A
C517        H529   1.083       .  S
C518        H530   1.083       .  S
C519        C520   1.346       .  D
C519        H531   1.086       .  S
C520        C521   1.485       .  S
C520        H532   1.087       .  S
C521        C522   1.403       .  A
C521        C526   1.408       .  A
C522        C523   1.397       .  A
C522        H533   1.083       .  S
C523        C524   1.404       .  A
C523        H534   1.082       .  S
C524        C525   1.404       .  A
C525        C526   1.401       .  A
C525        H535   1.082       .  S
C526        H536   1.082       .  S
C537        C538   1.408       .  A
C537        C542   1.405       .  A
C538        C539   1.398       .  A
C538        H551   1.083   1_545  S
C539        C540   1.406       .  A
C539        H552   1.082   1_545  S
C540        C541   1.405       .  A
C540        C543   1.487       .  S
C541        C542   1.400       .  A
C541        H553   1.083       .  S
C542        H554   1.083       .  S
C543        C544   1.351       .  D
C543        H555   1.083       .  S
C544        C545   1.492       .  S
C544        H556   1.086       .  S
C545        C546   1.407       .  A
C545        C550   1.408       .  A
C546        C547   1.402       .  A
C546        H557   1.083   1_545  S
C547        C548   1.402       .  A
C547       H1382   1.083   1_545  S
C548        C549   1.403       .  A
C549        C550   1.396       .  A
C549        H559   1.084       .  S
C550        H560   1.080       .  S
H558       C1371   1.083       .  S
C561        C562   1.403       .  A
C561        C566   1.404       .  A
C562        C563   1.393       .  A
C562        H575   1.083       .  S
C563        C564   1.401       .  A
C563        H576   1.084       .  S
C564        C565   1.410       .  A
C564        C567   1.485       .  S
C565        C566   1.404       .  A
C565        H577   1.082       .  S
C566        H578   1.083   1_565  S
C567        C568   1.343       .  D
C567        H579   1.088       .  S
C568        C569   1.483       .  S
C568        H580   1.086       .  S
C569        C570   1.400       .  A
C569        C574   1.407       .  A
C570        C571   1.399       .  A
C570        H581   1.083       .  S
C571        C572   1.408       .  A
C571        H582   1.083       .  S
C572        C573   1.404       .  A
C573        C574   1.400       .  A
C573        H583   1.083       .  S
C574        H584   1.083       .  S
C585        C586   1.405       .  A
C585        C590   1.405   1_545  A
C586        C587   1.396       .  A
C586        H599   1.083       .  S
C587        C588   1.402       .  A
C587        H600   1.083       .  S
C588        C589   1.408   1_545  A
C588        C591   1.486       .  S
C589        C590   1.403       .  A
C589        H601   1.082       .  S
C590        H602   1.083       .  S
C591        C592   1.348   1_545  D
C591        H603   1.086       .  S
C592        C593   1.489       .  S
C592        H604   1.086       .  S
C593        C594   1.405       .  A
C593        C598   1.408   1_565  A
C594        C595   1.400       .  A
C594        H605   1.083       .  S
C595        C596   1.404       .  A
C595        H606   1.082       .  S
C596        C597   1.404   1_565  A
C597        C598   1.399       .  A
C597        H607   1.082       .  S
C598        H608   1.082       .  S
C609        C610   1.401       .  A
C609        C614   1.402       .  A
C610        C611   1.397       .  A
C610        H623   1.083       .  S
C611        C612   1.403       .  A
C611        H624   1.083       .  S
C612        C613   1.409       .  A
C612        C615   1.487       .  S
C613        C614   1.402       .  A
C613        H625   1.082   1_545  S
C614       H1450   1.083   1_545  S
C615        C616   1.349       .  D
C615        H627   1.084       .  S
C616        C617   1.491       .  S
C616        H628   1.086       .  S
C617        C618   1.404       .  A
C617        C622   1.409       .  A
C618        C619   1.399       .  A
C618        H629   1.083   1_545  S
C619        C620   1.407       .  A
C619        H630   1.083   1_545  S
C620        C621   1.406       .  A
C621        C622   1.401       .  A
C621        H631   1.083       .  S
C622        H632   1.081       .  S
H626       C1438   1.083       .  S
C633        C634   1.402       .  A
C633        C638   1.400   1_545  A
C634        C635   1.401       .  A
C634        H647   1.083   1_554  S
C635        C636   1.406       .  A
C635        H648   1.083       .  S
C636        C637   1.409   1_545  A
C636        C639   1.491       .  S
C637        C638   1.396       .  A
C637        H649   1.081       .  S
C638        H650   1.083       .  S
C639        C640   1.350   1_545  D
C639        H651   1.085       .  S
C640        C641   1.487       .  S
C640        H652   1.084       .  S
C641        C642   1.404       .  A
C641        C646   1.408   1_565  A
C642        C643   1.397       .  A
C642        H653   1.084       .  S
C643        C644   1.405       .  A
C643        H654   1.083       .  S
C644        C645   1.407   1_565  A
C645        C646   1.402       .  A
C645        H655   1.083       .  S
C646        H656   1.081       .  S
C657        C658   1.403   1_545  A
C657        C662   1.402       .  A
C658        C659   1.398       .  A
C658       H1495   1.082       .  S
C659        C660   1.405       .  A
C659        H672   1.083       .  S
C660        C661   1.410   1_565  A
C660        C663   1.489       .  S
C661        C662   1.397       .  A
C661        H673   1.080       .  S
C662        H674   1.082       .  S
C663        C664   1.348       .  D
C663        H675   1.084       .  S
C664        C665   1.490       .  S
C664        H676   1.084       .  S
C665        C666   1.404       .  A
C665        C670   1.410       .  A
C666        C667   1.397       .  A
C666        H677   1.083       .  S
C667        C668   1.405       .  A
C667        H678   1.083       .  S
C668        C669   1.406       .  A
C669        C670   1.399       .  A
C669        H679   1.083       .  S
C670        H680   1.080       .  S
H671       C1482   1.082       .  S
C681        C682   1.408       .  A
C681        C686   1.406       .  A
C682        C683   1.401       .  A
C682        H695   1.083       .  S
C683        C684   1.403       .  A
C683        H696   1.083       .  S
C684        C685   1.406       .  A
C684        C687   1.485       .  S
C685        C686   1.398       .  A
C685        H697   1.083   1_655  S
C686        H698   1.083   1_655  S
C687        C688   1.348       .  D
C687        H699   1.085       .  S
C688        C689   1.487       .  S
C688        H700   1.087   1_655  S
C689        C690   1.407   1_655  A
C689        C694   1.406       .  A
C690        C691   1.401       .  A
C690        H701   1.083       .  S
C691        C692   1.402       .  A
C691        H702   1.083       .  S
C692        C693   1.403   1_455  A
C693        C694   1.396       .  A
C693        H703   1.083       .  S
C694        H704   1.082       .  S
C705        C706   1.407       .  A
C705        C710   1.405   1_455  A
C706        C707   1.401       .  A
C706        H719   1.082       .  S
C707        C708   1.403       .  A
C707        H720   1.083       .  S
C708        C709   1.406   1_455  A
C708        C711   1.487       .  S
C709        C710   1.399       .  A
C709        H721   1.083       .  S
C710        H722   1.082       .  S
C711        C712   1.346       .  D
C711        H723   1.086       .  S
C712        C713   1.485       .  S
C712        H724   1.087       .  S
C713        C714   1.400       .  A
C713        C718   1.408       .  A
C714        C715   1.396       .  A
C714        H725   1.084       .  S
C715        C716   1.408       .  A
C715        H726   1.083       .  S
C716        C717   1.408       .  A
C717        C718   1.407       .  A
C717        H727   1.083       .  S
C718        H728   1.083       .  S
C729        C730   1.404       .  A
C729        C734   1.405   1_655  A
C730        C731   1.397       .  A
C730        H743   1.083       .  S
C731        C732   1.405       .  A
C731        H744   1.083       .  S
C732        C733   1.410   1_655  A
C732        C735   1.491       .  S
C733        C734   1.399       .  A
C733        H745   1.080       .  S
C734        H746   1.083       .  S
C735        C736   1.348   1_655  D
C735        H747   1.085       .  S
C736        C737   1.487       .  S
C736        H748   1.083       .  S
C737        C738   1.403       .  A
C737        C742   1.410       .  A
C738        C739   1.396       .  A
C738        H749   1.083       .  S
C739        C740   1.402       .  A
C739        H750   1.083       .  S
C740        C741   1.401       .  A
C741        C742   1.400       .  A
C741        H751   1.083   1_455  S
C742        H752   1.081   1_455  S
C753        C754   1.401       .  A
C753        C758   1.403   1_655  A
C754        C755   1.394       .  A
C754        H767   1.083       .  S
C755        C756   1.402       .  A
C755        H768   1.084       .  S
C756        C757   1.408   1_655  A
C756        C759   1.480       .  S
C757        C758   1.401       .  A
C757        H769   1.082       .  S
C758        H770   1.083   1_554  S
C759        C760   1.347   1_655  D
C759        H771   1.086       .  S
C760        C761   1.484       .  S
C760        H772   1.086       .  S
C761        C762   1.403       .  A
C761        C766   1.406       .  A
C762        C763   1.401       .  A
C762        H773   1.083       .  S
C763        C764   1.407       .  A
C763        H774   1.083       .  S
C764        C765   1.406       .  A
C765        C766   1.394       .  A
C765        H775   1.083   1_455  S
C766        H776   1.082   1_455  S
C777        C778   1.402       .  A
C777        C782   1.402       .  A
C778        C779   1.399       .  A
C778        H791   1.082       .  S
C779        C780   1.406       .  A
C779        H792   1.083       .  S
C780        C781   1.412       .  A
C780        C783   1.495       .  S
C781        C782   1.400       .  A
C781        H793   1.079   1_655  S
C782        H794   1.083   1_655  S
C783        C784   1.350       .  D
C783        H795   1.085       .  S
C784        C785   1.491       .  S
C784        H796   1.082       .  S
C785        C786   1.404       .  A
C785        C790   1.409       .  A
C786        C787   1.398       .  A
C786        H797   1.083       .  S
C787        C788   1.406       .  A
C787        H798   1.083       .  S
C788        C789   1.406       .  A
C789        C790   1.401       .  A
C789        H799   1.083       .  S
C790        H800   1.081       .  S
C801        C802   1.403       .  A
C801        C806   1.399   1_655  A
C802        C803   1.402       .  A
C802        H815   1.083       .  S
C803        C804   1.404       .  A
C803        H816   1.083       .  S
C804        C805   1.407   1_655  A
C804        C807   1.486       .  S
C805        C806   1.394       .  A
C805        H817   1.083       .  S
C806        H818   1.083       .  S
C807        C808   1.348       .  D
C807        H819   1.084       .  S
C808        C809   1.485       .  S
C808        H820   1.087   1_655  S
C809        C810   1.403   1_655  A
C809        C814   1.409       .  A
C810        C811   1.393       .  A
C810        H821   1.084       .  S
C811        C812   1.403   1_455  A
C811        H822   1.083       .  S
C812        C813   1.406       .  A
C813        C814   1.403       .  A
C813        H823   1.083       .  S
C814        H824   1.081       .  S
N825        C826   1.356       .  A
N825       C1601   1.440       .  S
C826       C1625   1.475       .  S
C827        C828   1.371       .  A
C827        H830   1.082   1_655  S
C828        C829   1.382       .  A
C828        H831   1.082   1_655  S
C829       C1577   1.474       .  S
N832        C833   1.359       .  A
N832       C1529   1.445       .  S
C833       C1564   1.474       .  S
C834        C835   1.371       .  A
C834        H837   1.082       .  S
C835        C836   1.381       .  A
C835        H838   1.082       .  S
C836       C1516   1.477   1_455  S
N839        C840   1.355       .  A
N839       C1481   1.442   1_545  S
C840       C1433   1.470       .  S
C841        C842   1.374       .  A
C841        H844   1.082       .  S
C842        C843   1.383       .  A
C842        H845   1.082       .  S
C843       C1457   1.481       .  S
N846        C847   1.360   1_565  A
N846       C1420   1.441       .  S
C847       C1372   1.479       .  S
C848        C849   1.368   1_544  A
C848        H851   1.082   1_554  S
C849        C850   1.382   1_556  A
C849        H852   1.082       .  S
C850       C1385   1.480   1_554  S
N853        C854   1.358       .  A
N853       C1348   1.445       .  S
C854       C1300   1.474       .  S
C855        C856   1.373       .  A
C855        H858   1.082       .  S
C856        C857   1.381       .  A
C856        H859   1.082       .  S
C857       C1324   1.479       .  S
N860        C861   1.358       .  A
N860       C1276   1.441       .  S
C861       C1217   1.477       .  S
C862        C863   1.369       .  A
C862        H865   1.082       .  S
C863        C864   1.381       .  A
C863        H866   1.082       .  S
C864       C1252   1.478       .  S
N867        C868   1.359       .  A
N867       C1169   1.441       .  S
C868       C1204   1.479       .  S
C869        C870   1.371       .  A
C869        H872   1.082       .  S
C870        C871   1.384       .  A
C870        H873   1.082       .  S
C871       C1145   1.486       .  S
N874        C875   1.358       .  A
N874       C1108   1.442       .  S
C875       C1132   1.474       .  S
C876        C877   1.373       .  A
C876        H879   1.082       .  S
C877        C878   1.381       .  A
C877        H880   1.082       .  S
C878       C1073   1.477       .  S
O881       Mg883   2.126       .  S
O881       Mg889   2.146       .  S
O881        C916   1.237       .  S
C882        H921   1.081       .  S
C882        O895   1.238       .  S
C882        O919   1.271       .  A
Mg883       O912   2.140       .  S
Mg883       O927   2.307       .  S
Mg883       O923   2.254       .  S
Mg883       O894   2.302       .  S
O884       Mg926   2.148       .  S
O884       Mg909   2.136       .  S
O884        C905   1.239       .  S
O885        C916   1.270       .  A
O885       Mg909   2.293       .  S
C886       C1241   1.482       .  S
C886        O888   1.273       .  A
C886        O900   1.278       .  A
O887        C915   1.271       .  A
O887       Mg889   2.298       .  S
O888       Mg920   2.253       .  S
Mg889       O895   2.136       .  S
Mg889       O903   2.263       .  S
Mg889       O891   2.298       .  S
C890       C1121   1.487       .  S
C890        O928   1.274       .  A
C890        O896   1.277       .  A
O891        C898   1.275       .  A
H892        C905   1.081       .  S
C893        H918   1.081       .  S
C893        O907   1.238       .  S
C893        O908   1.273       .  A
O894        C917   1.271       .  A
O895       Mg909   2.156       .  S
O896       Mg926   2.314       .  S
C897       C1337   1.483       .  S
C897        O910   1.274       .  A
C897        O902   1.277       .  A
C898       C1313   1.480       .  S
C898        O925   1.274       .  A
Mg899       O906   2.141       .  S
Mg899       O907   2.138       .  S
Mg899       O900   2.325       .  S
Mg899       O901   2.302       .  S
Mg899       O928   2.273       .  S
O901        C905   1.273       .  A
O902       Mg909   2.315       .  S
O903        C922   1.273       .  A
O904        C924   1.278       .  A
O904       Mg920   2.326       .  S
O906       Mg920   2.135       .  S
O906        C917   1.237       .  S
O907       Mg926   2.136       .  S
O908       Mg920   2.307       .  S
Mg909       O925   2.268       .  S
O910       Mg926   2.269       .  S
H911        C916   1.081       .  S
O912       Mg920   2.133       .  S
O912        C915   1.238       .  S
H913        C915   1.081       .  S
H914        C917   1.081       .  S
O919       Mg926   2.295       .  S
C922       C1193   1.483       .  S
C922        O927   1.276       .  A
O923        C924   1.272       .  A
C924       C1265   1.485       .  S
O929       Mg931   2.141   1_565  S
O929       Mg937   2.139   1_565  S
O929        C964   1.238       .  S
C930        H969   1.081       .  S
C930        O943   1.237   1_545  S
C930        O967   1.271   1_545  A
Mg931       O960   2.137       .  S
Mg931       O975   2.317       .  S
Mg931       O971   2.247       .  S
Mg931       O942   2.302   1_545  S
O932       Mg974   2.150       .  S
O932       Mg957   2.135       .  S
O932        C953   1.239       .  S
O933        C964   1.272       .  A
O933       Mg957   2.304       .  S
C934       C1396   1.483       .  S
C934        O936   1.276       .  A
C934        O948   1.276       .  A
O935        C963   1.273       .  A
O935       Mg937   2.306       .  S
O936       Mg968   2.286       .  S
Mg937       O943   2.124   1_545  S
Mg937       O951   2.248       .  S
Mg937       O939   2.313       .  S
C938       C1289   1.484       .  S
C938        O976   1.273       .  A
C938        O944   1.277       .  A
O939        C946   1.276   1_545  A
H940        C953   1.081       .  S
C941        H966   1.081       .  S
C941        O955   1.239       .  S
C941        O956   1.273       .  A
O942        C965   1.271       .  A
O943       Mg957   2.140       .  S
O944       Mg974   2.312       .  S
C945       C1492   1.485       .  S
C945        O958   1.274       .  A
C945        O950   1.276       .  A
C946       C1468   1.485       .  S
C946        O973   1.273       .  A
Mg947       O954   2.135       .  S
Mg947       O955   2.141       .  S
Mg947       O948   2.309       .  S
Mg947       O949   2.299       .  S
Mg947       O976   2.266       .  S
O949        C953   1.272       .  A
O950       Mg957   2.305       .  S
O951        C970   1.271       .  A
O952        C972   1.280   1_565  A
O952       Mg968   2.346       .  S
O954       Mg968   2.137       .  S
O954        C965   1.237       .  S
O955       Mg974   2.136       .  S
O956       Mg968   2.306       .  S
Mg957       O973   2.268       .  S
O958       Mg974   2.272       .  S
H959        C964   1.081       .  S
O960       Mg968   2.147   1_545  S
O960        C963   1.238       .  S
H961        C963   1.081       .  S
H962        C965   1.081       .  S
O967       Mg974   2.297       .  S
C970       C1228   1.482       .  S
C970        O975   1.276       .  A
O971        C972   1.272       .  A
C972       C1409   1.480       .  S
O977       Mg979   2.129       .  S
O977       Mg985   2.137   1_545  S
O977       C1012   1.238   1_455  S
C978       H1017   1.081       .  S
C978        O991   1.237       .  S
C978       O1015   1.270       .  A
Mg979      O1008   2.141       .  S
Mg979      O1023   2.321       .  S
Mg979      O1019   2.250       .  S
Mg979       O990   2.301   1_455  S
O980      Mg1022   2.144       .  S
O980      Mg1005   2.126       .  S
O980       C1001   1.238       .  S
O981       C1012   1.272   1_565  A
O981      Mg1005   2.300       .  S
C982       C1505   1.482       .  S
C982        O984   1.275       .  A
C982        O996   1.276       .  A
O983       C1011   1.273       .  A
O983       Mg985   2.304   1_545  S
O984      Mg1016   2.274   1_655  S
Mg985       O991   2.127       .  S
Mg985       O999   2.256       .  S
Mg985       O987   2.312       .  S
C986       C1444   1.481       .  S
C986       O1024   1.274       .  A
C986        O992   1.275       .  A
O987        C994   1.276       .  A
H988       C1001   1.081       .  S
C989       H1014   1.081       .  S
C989       O1003   1.238   1_455  S
C989       O1004   1.272       .  A
O990       C1013   1.271       .  A
O991      Mg1005   2.139   1_455  S
O992      Mg1022   2.294   1_545  S
C993       C1612   1.487       .  S
C993       O1006   1.275       .  A
C993        O998   1.277       .  A
C994       C1588   1.482       .  S
C994       O1021   1.273       .  A
Mg995      O1002   2.138       .  S
Mg995      O1003   2.153       .  S
Mg995       O996   2.305       .  S
Mg995       O997   2.295       .  S
Mg995      O1024   2.269       .  S
O997       C1001   1.271   1_545  A
O998      Mg1005   2.313       .  S
O999       C1018   1.272   1_565  A
O1000      C1020   1.280       .  A
O1000     Mg1016   2.340       .  S
O1002     Mg1016   2.149   1_655  S
O1002      C1013   1.237       .  S
O1003     Mg1022   2.143   1_545  S
O1004     Mg1016   2.303       .  S
Mg1005     O1021   2.255   1_655  S
O1006     Mg1022   2.278       .  S
H1007      C1012   1.081       .  S
O1008     Mg1016   2.143       .  S
O1008      C1011   1.239       .  S
H1009      C1011   1.081       .  S
H1010      C1013   1.081       .  S
O1015     Mg1022   2.294   1_455  S
C1018      C1361   1.484       .  S
C1018      O1023   1.277       .  A
O1019      C1020   1.273       .  A
C1020      C1540   1.487       .  S
O1025     Mg1027   2.142   1_655  S
O1025     Mg1033   2.144       .  S
O1025      C1060   1.239       .  S
C1026      H1065   1.081       .  S
C1026      O1039   1.238       .  S
C1026      O1063   1.272       .  A
Mg1027     O1056   2.145       .  S
Mg1027     O1071   2.301       .  S
Mg1027     O1067   2.263       .  S
Mg1027     O1038   2.295       .  S
O1028     Mg1070   2.141       .  S
O1028     Mg1053   2.146       .  S
O1028      C1049   1.239       .  S
O1029      C1060   1.273       .  A
O1029     Mg1053   2.305       .  S
C1030      C1156   1.482       .  S
C1030      O1032   1.274       .  A
C1030      O1044   1.275       .  A
O1031      C1059   1.273   1_655  A
O1031     Mg1033   2.302       .  S
O1032     Mg1064   2.281       .  S
Mg1033     O1039   2.140       .  S
Mg1033     O1047   2.272       .  S
Mg1033     O1035   2.317       .  S
C1034      C1636   1.487       .  S
C1034      O1072   1.269   1_655  A
C1034      O1040   1.279       .  A
O1035      C1042   1.277       .  A
H1036      C1049   1.081       .  S
C1037      H1062   1.081       .  S
C1037      O1051   1.239       .  S
C1037      O1052   1.274       .  A
O1038      C1061   1.270       .  A
O1039     Mg1053   2.142       .  S
O1040     Mg1070   2.352       .  S
C1041      C1097   1.489       .  S
C1041      O1054   1.275       .  A
C1041      O1046   1.281       .  A
C1042      C1084   1.489       .  S
C1042      O1069   1.276       .  A
Mg1043     O1050   2.120       .  S
Mg1043     O1051   2.132       .  S
Mg1043     O1044   2.306       .  S
Mg1043     O1045   2.304   1_455  S
Mg1043     O1072   2.226       .  S
O1045      C1049   1.273       .  A
O1046     Mg1053   2.344       .  S
O1047      C1066   1.274       .  A
O1048      C1068   1.278       .  A
O1048     Mg1064   2.328       .  S
O1050     Mg1064   2.133       .  S
O1050      C1061   1.237       .  S
O1051     Mg1070   2.147   1_455  S
O1052     Mg1064   2.312       .  S
Mg1053     O1069   2.282       .  S
O1054     Mg1070   2.264       .  S
H1055      C1060   1.081       .  S
O1056     Mg1064   2.137       .  S
O1056      C1059   1.239       .  S
H1057      C1059   1.081       .  S
H1058      C1061   1.081       .  S
O1063     Mg1070   2.305       .  S
C1066      C1553   1.484       .  S
C1066      O1071   1.275   1_655  A
O1067      C1068   1.273       .  A
C1068      C1180   1.487       .  S
C1073      C1074   1.402       .  A
C1073      C1078   1.402       .  A
C1074      C1075   1.398       .  A
C1074      H1087   1.083       .  S
C1075      C1076   1.404       .  A
C1075      H1088   1.083       .  S
C1076      C1077   1.410       .  A
C1076      C1079   1.490       .  S
C1077      C1078   1.402       .  A
C1077      H1089   1.082       .  S
C1078      H1090   1.083       .  S
C1079      C1080   1.350       .  D
C1079      H1091   1.085       .  S
C1080      C1081   1.493       .  S
C1080      H1092   1.085       .  S
C1081      C1082   1.405       .  A
C1081      C1086   1.409       .  A
C1082      C1083   1.401       .  A
C1082      H1093   1.083       .  S
C1083      C1084   1.407       .  A
C1083      H1094   1.083       .  S
C1084      C1085   1.407       .  A
C1085      C1086   1.401       .  A
C1085      H1095   1.083       .  S
C1086      H1096   1.081       .  S
C1097      C1098   1.406       .  A
C1097      C1102   1.408       .  A
C1098      C1099   1.396       .  A
C1098      H1111   1.083       .  S
C1099      C1100   1.404       .  A
C1099      H1112   1.083       .  S
C1100      C1101   1.411       .  A
C1100      C1103   1.495       .  S
C1101      C1102   1.406       .  A
C1101      H1113   1.080       .  S
C1102      H1114   1.083       .  S
C1103      C1104   1.351       .  D
C1103      H1115   1.083       .  S
C1104      C1105   1.498       .  S
C1104      H1116   1.084       .  S
C1105      C1106   1.407       .  A
C1105      C1110   1.412       .  A
C1106      C1107   1.401       .  A
C1106      H1117   1.083       .  S
C1107      C1108   1.402       .  A
C1107      H1118   1.083       .  S
C1108      C1109   1.402       .  A
C1109      C1110   1.400       .  A
C1109      H1119   1.083       .  S
C1110      H1120   1.080       .  S
C1121      C1122   1.406       .  A
C1121      C1126   1.406       .  A
C1122      C1123   1.400       .  A
C1122      H1135   1.083       .  S
C1123      C1124   1.406       .  A
C1123      H1136   1.084       .  S
C1124      C1125   1.411       .  A
C1124      C1127   1.496       .  S
C1125      C1126   1.400       .  A
C1125      H1137   1.078       .  S
C1126      H1138   1.083       .  S
C1127      C1128   1.350       .  D
C1127      H1139   1.086       .  S
C1128      C1129   1.488       .  S
C1128      H1140   1.082       .  S
C1129      C1130   1.403       .  A
C1129      C1134   1.410       .  A
C1130      C1131   1.396       .  A
C1130      H1141   1.083       .  S
C1131      C1132   1.401       .  A
C1131      H1142   1.083       .  S
C1132      C1133   1.403       .  A
C1133      C1134   1.403       .  A
C1134      H1144   1.082       .  S
C1145      C1146   1.405       .  A
C1145      C1150   1.405       .  A
C1146      C1147   1.395       .  A
C1146      H1159   1.083       .  S
C1147      C1148   1.401       .  A
C1147      H1160   1.083       .  S
C1148      C1149   1.410       .  A
C1148      C1151   1.487       .  S
C1149      C1150   1.404       .  A
C1149      H1161   1.082       .  S
C1150      H1162   1.082       .  S
C1151      C1152   1.344       .  D
C1151      H1163   1.087       .  S
C1152      C1153   1.486       .  S
C1152      H1164   1.086       .  S
C1153      C1154   1.402       .  A
C1153      C1158   1.409       .  A
C1154      C1155   1.399       .  A
C1154      H1165   1.083       .  S
C1155      C1156   1.406       .  A
C1155      H1166   1.083       .  S
C1156      C1157   1.405       .  A
C1157      C1158   1.401       .  A
C1157      H1167   1.083       .  S
C1158      H1168   1.083       .  S
C1169      C1170   1.403       .  A
C1169      C1174   1.404       .  A
C1170      C1171   1.398       .  A
C1171      C1172   1.403       .  A
C1171      H1184   1.083       .  S
C1172      C1173   1.408       .  A
C1172      C1175   1.485       .  S
C1173      C1174   1.402       .  A
C1173      H1185   1.083       .  S
C1174      H1186   1.083       .  S
C1175      C1176   1.347       .  D
C1175      H1187   1.086       .  S
C1176      C1177   1.488       .  S
C1176      H1188   1.087       .  S
C1177      C1178   1.404       .  A
C1177      C1182   1.406       .  A
C1178      C1179   1.402       .  A
C1178      H1189   1.083       .  S
C1179      C1180   1.407       .  A
C1179      H1190   1.083       .  S
C1180      C1181   1.407       .  A
C1181      C1182   1.399       .  A
C1181      H1191   1.083       .  S
C1182      H1192   1.082       .  S
C1193      C1194   1.406       .  A
C1193      C1198   1.406       .  A
C1194      C1195   1.398       .  A
C1194      H1207   1.083       .  S
C1195      C1196   1.404       .  A
C1195      H1208   1.083       .  S
C1196      C1197   1.408       .  A
C1196      C1199   1.488       .  S
C1197      C1198   1.399       .  A
C1197      H1209   1.081       .  S
C1198      H1210   1.083       .  S
C1199      C1200   1.350       .  D
C1199      H1211   1.082       .  S
C1200      C1201   1.493       .  S
C1200      H1212   1.085       .  S
C1201      C1202   1.408       .  A
C1201      C1206   1.409       .  A
C1202      C1203   1.401       .  A
C1202      H1213   1.083       .  S
C1203      C1204   1.402       .  A
C1204      C1205   1.402       .  A
C1205      C1206   1.394       .  A
C1205      H1215   1.084       .  S
C1206      H1216   1.079       .  S
C1217      C1218   1.403       .  A
C1217      C1222   1.401       .  A
C1218      C1219   1.404       .  A
C1218      H1231   1.083       .  S
C1219      C1220   1.408       .  A
C1219      H1232   1.083       .  S
C1220      C1221   1.408       .  A
C1220      C1223   1.491       .  S
C1221      C1222   1.391       .  A
C1221      H1233   1.080       .  S
C1222      H1234   1.084       .  S
C1223      C1224   1.349       .  D
C1223      H1235   1.083       .  S
C1224      C1225   1.489       .  S
C1224      H1236   1.084       .  S
C1225      C1226   1.404       .  A
C1225      C1230   1.410       .  A
C1226      C1227   1.394       .  A
C1226      H1237   1.084       .  S
C1227      C1228   1.404       .  A
C1227      H1238   1.083       .  S
C1228      C1229   1.406       .  A
C1229      C1230   1.402       .  A
C1229      H1239   1.083       .  S
C1230      H1240   1.080       .  S
C1241      C1242   1.405       .  A
C1241      C1246   1.407       .  A
C1242      C1243   1.394       .  A
C1242      H1255   1.083       .  S
C1243      C1244   1.403       .  A
C1243      H1256   1.084       .  S
C1244      C1245   1.408       .  A
C1244      C1247   1.486       .  S
C1245      C1246   1.402       .  A
C1245      H1257   1.081       .  S
C1246      H1258   1.083       .  S
C1247      C1248   1.349       .  D
C1247      H1259   1.086       .  S
C1248      C1249   1.487       .  S
C1248      H1260   1.084       .  S
C1249      C1250   1.405       .  A
C1249      C1254   1.406       .  A
C1250      C1251   1.403       .  A
C1250      H1261   1.083       .  S
C1251      C1252   1.404       .  A
C1251      H1262   1.083   1_556  S
C1252      C1253   1.402       .  A
C1253      C1254   1.393       .  A
C1253      H1263   1.083       .  S
C1254      H1264   1.082       .  S
C1265      C1266   1.405       .  A
C1265      C1270   1.406       .  A
C1266      C1267   1.396       .  A
C1266      H1279   1.083       .  S
C1267      C1268   1.405       .  A
C1267      H1280   1.084       .  S
C1268      C1269   1.410       .  A
C1268      C1271   1.493       .  S
C1269      C1270   1.402       .  A
C1269      H1281   1.079       .  S
C1270      H1282   1.083       .  S
C1271      C1272   1.351       .  D
C1271      H1283   1.084       .  S
C1272      C1273   1.491       .  S
C1272      H1284   1.083       .  S
C1273      C1274   1.407       .  A
C1273      C1278   1.408       .  A
C1274      C1275   1.402       .  A
C1274      H1285   1.083       .  S
C1275      C1276   1.403       .  A
C1275      H1286   1.083       .  S
C1276      C1277   1.402       .  A
C1277      C1278   1.396       .  A
C1277      H1287   1.083       .  S
C1278      H1288   1.081       .  S
C1289      C1290   1.405       .  A
C1289      C1294   1.408       .  A
C1290      C1291   1.398       .  A
C1290      H1303   1.083       .  S
C1291      C1292   1.404       .  A
C1291      H1304   1.083       .  S
C1292      C1293   1.407       .  A
C1292      C1295   1.487       .  S
C1293      C1294   1.401       .  A
C1293      H1305   1.082       .  S
C1294      H1306   1.083       .  S
C1295      C1296   1.351       .  D
C1295      H1307   1.083       .  S
C1296      C1297   1.493       .  S
C1296      H1308   1.085       .  S
C1297      C1298   1.408       .  A
C1297      C1302   1.409       .  A
C1298      C1299   1.403       .  A
C1298      H1309   1.083       .  S
C1299      C1300   1.401       .  A
C1299      H1310   1.083       .  S
C1300      C1301   1.401       .  A
C1301      C1302   1.395       .  A
C1301      H1311   1.084       .  S
C1302      H1312   1.080       .  S
C1313      C1314   1.407       .  A
C1313      C1318   1.405       .  A
C1314      C1315   1.400       .  A
C1314      H1327   1.083       .  S
C1315      C1316   1.403       .  A
C1315      H1328   1.083       .  S
C1316      C1317   1.406       .  A
C1316      C1319   1.483       .  S
C1317      C1318   1.396       .  A
C1317      H1329   1.083       .  S
C1318      H1330   1.083       .  S
C1319      C1320   1.347       .  D
C1319      H1331   1.085       .  S
C1320      C1321   1.486       .  S
C1320      H1332   1.087       .  S
C1321      C1322   1.406       .  A
C1321      C1326   1.407       .  A
C1322      C1323   1.400       .  A
C1322      H1333   1.083       .  S
C1323      C1324   1.402       .  A
C1323      H1334   1.083       .  S
C1324      C1325   1.402       .  A
C1325      C1326   1.397       .  A
C1325      H1335   1.083       .  S
C1326      H1336   1.081       .  S
C1337      C1338   1.406       .  A
C1337      C1342   1.405       .  A
C1338      C1339   1.402       .  A
C1338      H1351   1.083       .  S
C1339      C1340   1.404       .  A
C1339      H1352   1.083       .  S
C1340      C1341   1.408       .  A
C1340      C1343   1.490       .  S
C1341      C1342   1.399       .  A
C1341      H1353   1.082       .  S
C1342      H1354   1.083       .  S
C1343      C1344   1.348       .  D
C1343      H1355   1.085       .  S
C1344      C1345   1.489       .  S
C1344      H1356   1.086       .  S
C1345      C1346   1.403       .  A
C1345      C1350   1.409       .  A
C1346      C1347   1.396       .  A
C1346      H1357   1.083       .  S
C1347      C1348   1.404       .  A
C1347      H1358   1.082       .  S
C1348      C1349   1.406       .  A
C1349      C1350   1.404       .  A
C1349      H1359   1.082       .  S
C1350      H1360   1.082       .  S
C1361      C1362   1.407       .  A
C1361      C1366   1.405       .  A
C1362      C1363   1.398       .  A
C1362      H1375   1.083   1_545  S
C1363      C1364   1.406       .  A
C1363      H1376   1.082   1_545  S
C1364      C1365   1.405       .  A
C1364      C1367   1.487       .  S
C1365      C1366   1.400       .  A
C1365      H1377   1.083       .  S
C1366      H1378   1.083       .  S
C1367      C1368   1.351       .  D
C1367      H1379   1.084       .  S
C1368      C1369   1.490       .  S
C1368      H1380   1.085       .  S
C1369      C1370   1.407       .  A
C1369      C1374   1.407       .  A
C1370      C1371   1.402   1_545  A
C1370      H1381   1.083   1_545  S
C1371      C1372   1.402   1_565  A
C1372      C1373   1.403       .  A
C1373      C1374   1.396       .  A
C1373      H1383   1.083       .  S
C1374      H1384   1.081       .  S
C1385      C1386   1.403       .  A
C1385      C1390   1.404       .  A
C1386      C1387   1.393       .  A
C1386      H1399   1.083       .  S
C1387      C1388   1.401       .  A
C1387      H1400   1.084       .  S
C1388      C1389   1.411       .  A
C1388      C1391   1.486       .  S
C1389      C1390   1.406       .  A
C1389      H1401   1.082   1_565  S
C1390      H1402   1.083   1_566  S
C1391      C1392   1.344       .  D
C1391      H1403   1.087       .  S
C1392      C1393   1.486       .  S
C1392      H1404   1.086       .  S
C1393      C1394   1.401       .  A
C1393      C1398   1.408       .  A
C1394      C1395   1.400       .  A
C1394      H1405   1.083       .  S
C1395      C1396   1.408       .  A
C1395      H1406   1.083       .  S
C1396      C1397   1.405       .  A
C1397      C1398   1.400       .  A
C1397      H1407   1.083       .  S
C1398      H1408   1.083       .  S
C1409      C1410   1.405       .  A
C1409      C1414   1.405   1_545  A
C1410      C1411   1.396       .  A
C1410      H1423   1.083       .  S
C1411      C1412   1.403       .  A
C1411      H1424   1.083       .  S
C1412      C1413   1.410   1_545  A
C1412      C1415   1.489       .  S
C1413      C1414   1.404       .  A
C1413      H1425   1.082       .  S
C1414      H1426   1.083       .  S
C1415      C1416   1.349   1_545  D
C1415      H1427   1.085       .  S
C1416      C1417   1.492       .  S
C1416      H1428   1.085       .  S
C1417      C1418   1.406       .  A
C1417      C1422   1.409   1_565  A
C1418      C1419   1.401       .  A
C1418      H1429   1.083       .  S
C1419      C1420   1.403       .  A
C1419      H1430   1.083       .  S
C1420      C1421   1.402   1_565  A
C1421      C1422   1.399       .  A
C1421      H1431   1.083       .  S
C1422      H1432   1.081       .  S
C1433      C1434   1.401       .  A
C1433      C1438   1.400   1_545  A
C1434      C1435   1.397       .  A
C1434      H1447   1.083       .  S
C1435      C1436   1.403       .  A
C1435      H1448   1.083       .  S
C1436      C1437   1.409   1_545  A
C1436      C1439   1.483       .  S
C1437      C1438   1.399       .  A
C1437      H1449   1.082       .  S
C1439      C1440   1.347       .  D
C1439      H1451   1.084       .  S
C1440      C1441   1.487       .  S
C1440      H1452   1.086   1_545  S
C1441      C1442   1.403   1_545  A
C1441      C1446   1.409       .  A
C1442      C1443   1.396   1_565  A
C1442      H1453   1.083       .  S
C1443      C1444   1.405       .  A
C1443      H1454   1.083   1_545  S
C1444      C1445   1.406       .  A
C1445      C1446   1.399       .  A
C1445      H1455   1.083       .  S
C1446      H1456   1.081       .  S
C1457      C1458   1.403       .  A
C1457      C1462   1.402       .  A
C1458      C1459   1.402       .  A
C1458      H1471   1.083       .  S
C1459      C1460   1.406       .  A
C1459      H1472   1.083       .  S
C1460      C1461   1.409       .  A
C1460      C1463   1.491       .  S
C1461      C1462   1.396       .  A
C1461      H1473   1.081       .  S
C1462      H1474   1.083       .  S
C1463      C1464   1.350   1_545  D
C1463      H1475   1.083       .  S
C1464      C1465   1.493       .  S
C1464      H1476   1.085       .  S
C1465      C1466   1.405       .  A
C1465      C1470   1.410   1_565  A
C1466      C1467   1.397       .  A
C1466      H1477   1.083       .  S
C1467      C1468   1.404       .  A
C1467      H1478   1.083       .  S
C1468      C1469   1.407   1_565  A
C1469      C1470   1.401       .  A
C1469      H1479   1.083       .  S
C1470      H1480   1.079       .  S
C1481      C1482   1.403       .  A
C1481      C1486   1.403   1_565  A
C1482      C1483   1.396       .  A
C1483      C1484   1.404       .  A
C1483      H1496   1.083       .  S
C1484      C1485   1.411       .  A
C1484      C1487   1.491       .  S
C1485      C1486   1.400   1_565  A
C1485      H1497   1.080   1_565  S
C1486      H1498   1.082       .  S
C1487      C1488   1.348       .  D
C1487      H1499   1.084       .  S
C1488      C1489   1.491       .  S
C1488      H1500   1.084       .  S
C1489      C1490   1.404       .  A
C1489      C1494   1.410       .  A
C1490      C1491   1.399       .  A
C1490      H1501   1.083       .  S
C1491      C1492   1.406       .  A
C1491      H1502   1.083       .  S
C1492      C1493   1.406       .  A
C1493      C1494   1.399       .  A
C1493      H1503   1.083       .  S
C1494      H1504   1.080       .  S
C1505      C1506   1.407       .  A
C1505      C1510   1.405       .  A
C1506      C1507   1.400       .  A
C1506      H1519   1.083       .  S
C1507      C1508   1.403       .  A
C1507      H1520   1.083       .  S
C1508      C1509   1.407       .  A
C1508      C1511   1.485       .  S
C1509      C1510   1.398       .  A
C1509      H1521   1.082   1_655  S
C1510      H1522   1.083   1_655  S
C1511      C1512   1.348       .  D
C1511      H1523   1.085       .  S
C1512      C1513   1.488       .  S
C1512      H1524   1.087   1_655  S
C1513      C1514   1.407   1_655  A
C1513      C1518   1.408       .  A
C1514      C1515   1.400       .  A
C1514      H1525   1.083       .  S
C1515      C1516   1.401   1_455  A
C1515      H1526   1.083       .  S
C1516      C1517   1.402       .  A
C1517      C1518   1.396       .  A
C1517      H1527   1.083       .  S
C1518      H1528   1.081       .  S
C1529      C1530   1.406       .  A
C1529      C1534   1.404   1_455  A
C1530      C1531   1.400       .  A
C1530      H1543   1.082       .  S
C1531      C1532   1.403       .  A
C1531      H1544   1.083       .  S
C1532      C1533   1.407   1_455  A
C1532      C1535   1.486       .  S
C1533      C1534   1.399       .  A
C1533      H1545   1.083       .  S
C1534      H1546   1.082       .  S
C1535      C1536   1.345       .  D
C1535      H1547   1.086       .  S
C1536      C1537   1.484       .  S
C1536      H1548   1.087       .  S
C1537      C1538   1.400       .  A
C1537      C1542   1.408       .  A
C1538      C1539   1.394       .  A
C1538      H1549   1.084       .  S
C1539      C1540   1.407       .  A
C1539      H1550   1.083       .  S
C1540      C1541   1.408       .  A
C1541      C1542   1.406       .  A
C1541      H1551   1.083       .  S
C1542      H1552   1.083       .  S
C1553      C1554   1.405       .  A
C1553      C1558   1.406   1_655  A
C1554      C1555   1.398       .  A
C1554      H1567   1.083       .  S
C1555      C1556   1.404       .  A
C1555      H1568   1.083       .  S
C1556      C1557   1.409   1_655  A
C1556      C1559   1.490   1_655  S
C1557      C1558   1.399       .  A
C1557      H1569   1.080       .  S
C1558      H1570   1.083       .  S
C1559      C1560   1.348       .  D
C1559      H1571   1.086   1_455  S
C1560      C1561   1.483       .  S
C1560      H1572   1.083       .  S
C1561      C1562   1.402       .  A
C1561      C1566   1.408       .  A
C1562      C1563   1.396       .  A
C1562      H1573   1.083       .  S
C1563      C1564   1.402       .  A
C1563      H1574   1.083       .  S
C1564      C1565   1.402       .  A
C1565      C1566   1.400       .  A
C1565      H1575   1.083   1_455  S
C1566      H1576   1.082   1_455  S
C1577      C1578   1.401       .  A
C1577      C1582   1.403   1_655  A
C1578      C1579   1.393       .  A
C1578      H1591   1.083       .  S
C1579      C1580   1.401       .  A
C1579      H1592   1.084       .  S
C1580      C1581   1.409   1_655  A
C1580      C1583   1.481       .  S
C1581      C1582   1.402       .  A
C1581      H1593   1.082       .  S
C1582      H1594   1.083       .  S
C1583      C1584   1.347   1_655  D
C1583      H1595   1.085       .  S
C1584      C1585   1.486       .  S
C1584      H1596   1.086       .  S
C1585      C1586   1.403       .  A
C1585      C1590   1.407       .  A
C1586      C1587   1.400       .  A
C1586      H1597   1.083       .  S
C1587      C1588   1.407       .  A
C1587      H1598   1.083       .  S
C1588      C1589   1.406       .  A
C1589      C1590   1.395       .  A
C1589      H1599   1.083   1_455  S
C1590      H1600   1.081   1_455  S
C1601      C1602   1.401       .  A
C1601      C1606   1.402   1_655  A
C1602      C1603   1.397       .  A
C1602      H1615   1.083       .  S
C1603      C1604   1.406       .  A
C1603      H1616   1.083       .  S
C1604      C1605   1.412       .  A
C1604      C1607   1.495       .  S
C1605      C1606   1.403   1_655  A
C1605      H1617   1.080   1_655  S
C1606      H1618   1.083       .  S
C1607      C1608   1.350       .  D
C1607      H1619   1.085       .  S
C1608      C1609   1.493       .  S
C1608      H1620   1.083   1_655  S
C1609      C1610   1.404       .  A
C1609      C1614   1.409       .  A
C1610      C1611   1.400       .  A
C1610      H1621   1.083   1_655  S
C1611      C1612   1.407       .  A
C1611      H1622   1.083   1_655  S
C1612      C1613   1.406       .  A
C1613      C1614   1.400       .  A
C1613      H1623   1.083       .  S
C1614      H1624   1.081       .  S
C1625      C1626   1.403       .  A
C1625      C1630   1.400   1_655  A
C1626      C1627   1.403       .  A
C1626      H1639   1.083       .  S
C1627      C1628   1.407       .  A
C1627      H1640   1.083       .  S
C1628      C1629   1.409   1_655  A
C1628      C1631   1.492       .  S
C1629      C1630   1.393       .  A
C1629      H1641   1.081       .  S
C1630      H1642   1.084       .  S
C1631      C1632   1.347   1_655  D
C1631      H1643   1.085       .  S
C1632      C1633   1.489   1_455  S
C1632      H1644   1.085       .  S
C1633      C1634   1.400   1_655  A
C1633      C1638   1.412       .  A
C1634      C1635   1.391       .  A
C1634      H1645   1.084       .  S
C1635      C1636   1.407   1_455  A
C1635      H1646   1.083       .  S
C1636      C1637   1.407       .  A
C1637      C1638   1.407       .  A
C1637      H1647   1.083       .  S
C1638      H1648   1.081       .  S
