geometry optimzed in LAMMPS
_audit_creation_date              2020-12-01 
_audit_creation_method            'lammps2cif' 
_symmetry_space_group_name_H-M    'P1' 
_symmetry_Int_Tables_number       1 
_symmetry_cell_setting            triclinic 
loop_ 
_symmetry_equiv_pos_as_xyz 
  x,y,z 
_cell_length_a                    44.45263501 
_cell_length_b                    44.72293530782736 
_cell_length_c                    34.803588360886216 
_cell_angle_alpha                 89.99056783074754 
_cell_angle_beta                  90.15182098930279 
_cell_angle_gamma                 90.82937491980935 
loop_ 
_atom_site_label 
_atom_site_type_symbol 
_atom_site_fract_x 
_atom_site_fract_y 
_atom_site_fract_z 
_atom_site_charge 
N1          N  0.96562579  0.75547346  0.49516581    -0.02300
C2          C  0.96221773  0.72553183  0.49004281     0.00300
C3          C  0.95241646  0.71232927  0.02383462    -0.22600
C4          C  0.95012577  0.73479832  0.05065794    -0.22800
C5          C  0.95887670  0.76097989  0.03252569     0.00200
H6          H  0.94843203  0.68872002  0.02883856     0.14000
H7          H  0.94453955  0.73203026  0.08070717     0.14000
N8          N  0.04542128  0.23346627  0.00897656    -0.02300
C9          C  0.05279609  0.26268885  0.01539973     0.00300
C10         C  0.06191588  0.27606591  0.48138556    -0.22600
C11         C  0.05960187  0.25472036  0.45318146    -0.22800
C12         C  0.04935192  0.22887284  0.47075600     0.00200
H13         H  0.06825434  0.29928226  0.47712210     0.14000
H14         H  0.06426127  0.25787314  0.42293337     0.14000
N15         N  0.73999317  0.94593745  0.48769263    -0.02300
C16         C  0.76852209  0.93854266  0.47824832     0.00300
C17         C  0.78371813  0.92860894  0.01038691    -0.22600
C18         C  0.76387682  0.93006301  0.04066344    -0.22800
C19         C  0.73711022  0.94057015  0.02593394     0.00200
H20         H  0.80712261  0.92237989  0.01198949     0.14000
H21         H  0.76863372  0.92462885  0.07034435     0.14000
N22         N  0.26440090  0.04601151  0.99854857    -0.02300
C23         C  0.23572522  0.05400274  0.00707993     0.00300
C24         C  0.22157986  0.06442404  0.47433405    -0.22600
C25         C  0.24191465  0.06242461  0.44477577    -0.22800
C26         C  0.26804456  0.05105884  0.46025896     0.00200
H27         H  0.19851840  0.07162327  0.47182703     0.14000
H28         H  0.23794547  0.06840235  0.41507925     0.14000
N29         N  0.54040278  0.73753278  0.49154726    -0.02300
C30         C  0.54133865  0.76760409  0.48671281     0.00300
C31         C  0.54678625  0.78161384  0.02150070    -0.22600
C32         C  0.54915377  0.75938732  0.04865789    -0.22800
C33         C  0.54475421  0.73248288  0.02967751     0.00200
H34         H  0.54815985  0.80545272  0.02670430     0.14000
H35         H  0.55230228  0.76259960  0.07923289     0.14000
N36         N  0.46848748  0.26112618  0.00285509    -0.02300
C37         C  0.45951867  0.23240025  0.01026150     0.00300
C38         C  0.45133505  0.21843239  0.47614598    -0.22600
C39         C  0.45518738  0.23896504  0.44723241    -0.22800
C40         C  0.46571523  0.26494570  0.46423841     0.00200
H41         H  0.44462285  0.19528457  0.47221834     0.14000
H42         H  0.45126496  0.23517231  0.41690636     0.14000
N43         N  0.24505516  0.44187994  0.00452988    -0.02300
C44         C  0.27345236  0.43324937  0.01294310     0.00300
C45         C  0.28721736  0.42228460  0.48040506    -0.22600
C46         C  0.26656199  0.42432932  0.45094177    -0.22800
C47         C  0.24073390  0.43616631  0.46655688     0.00200
H48         H  0.31021245  0.41490666  0.47797197     0.14000
H49         H  0.27014607  0.41827190  0.42121712     0.14000
N50         N  0.77217724  0.55072016  0.49087986    -0.02300
C51         C  0.74332902  0.55911477  0.48482085     0.00300
C52         C  0.73074986  0.56888028  0.01878324    -0.22600
C53         C  0.75248555  0.56613307  0.04673387    -0.22800
C54         C  0.77770876  0.55494681  0.02889863     0.00200
H55         H  0.70781380  0.57591024  0.02311657     0.14000
H56         H  0.74998995  0.57124739  0.07693968     0.14000
O57         O  0.58534289  0.48279708  0.27408078    -0.79700
O58         O  0.44982319  0.46767835  0.21842085    -0.64400
O59         O  0.53239908  0.49052572  0.22906452    -1.11000
C60         C  0.49915131  0.56616134  0.31088579     1.07200
O61         O  0.42959322  0.51268277  0.22353800    -0.77600
O62         O  0.47588662  0.55192086  0.21176014    -0.65200
Ni63       Ni  0.56204717  0.46006843  0.23661719     1.34900
C64         C  0.50336913  0.55980249  0.20894281     0.85900
O65         O  0.49881436  0.45129838  0.18304205    -0.78100
O66         O  0.54366361  0.43329201  0.19916066    -0.88400
C67         C  0.42826202  0.48541171  0.21289170     0.85500
O68         O  0.54131624  0.44064296  0.27759266    -0.66600
O69         O  0.47650882  0.56639613  0.28831194    -0.85900
C70         C  0.51356802  0.43445933  0.28215467     0.86400
C71         C  0.51976232  0.43262258  0.17877052     1.07900
H72         H  0.47833796  0.49556416  0.28792612     0.39700
O73         O  0.48426749  0.50612526  0.26486669    -1.08500
O74         O  0.52361158  0.55050416  0.23207149    -0.65200
Ni75       Ni  0.52549193  0.51825166  0.26982515     1.26300
O76         O  0.49301553  0.44605979  0.26149149    -0.65400
O77         O  0.51788326  0.54510004  0.31091861    -0.77700
C78         C  0.58711081  0.51018233  0.28400760     0.85700
O79         O  0.56684204  0.52867190  0.27556229    -0.64900
Ni80       Ni  0.45557268  0.53726223  0.25600090     1.27400
Ni81       Ni  0.49120515  0.47828303  0.22405252     1.26100
H82         H  0.53800765  0.50129113  0.20603819     0.40300
O83         O  0.47703511  0.92330314  0.27313942    -0.79700
O84         O  0.47971850  0.05829528  0.22107580    -0.64400
O85         O  0.48989309  0.97374797  0.22618112    -1.11000
C86         C  0.57225004  0.99993734  0.30797211     1.07200
O87         O  0.52827189  0.06668285  0.21161735    -0.77600
O88         O  0.56739092  0.02139481  0.21314350    -0.65200
Ni89       Ni  0.45625901  0.94749639  0.23540712     1.34900
C90         C  0.56760906  0.99373732  0.20495350     0.85900
O91         O  0.45229392  0.01291282  0.18656821    -0.78100
O92         O  0.43159648  0.96785939  0.19780041    -0.88400
C93         C  0.50092754  0.07413160  0.20716762     0.85500
O94         O  0.43921713  0.96986233  0.27634651    -0.66600
O95         O  0.57188166  0.02541292  0.29138992    -0.85900
C96         C  0.43844213  0.99764764  0.28381036     0.86400
C97         C  0.43222250  0.99298497  0.18027906     1.07900
H98         H  0.50670401  0.02361799  0.28567856     0.39700
O99         O  0.51500745  0.01780291  0.26120740    -1.08500
O100        O  0.55112283  0.97447649  0.22227016    -0.65200
Ni101      Ni  0.52169625  0.97577606  0.26330915     1.26300
O102        O  0.45376141  0.01707197  0.26504106    -0.65400
O103        O  0.55325250  0.97908600  0.30061071    -0.77700
C104        C  0.50456080  0.91663064  0.27832497     0.85700
O105        O  0.52568775  0.93347812  0.26630579    -0.64900
Ni106      Ni  0.54827542  0.04437057  0.25184826     1.27400
Ni107      Ni  0.48340228  0.01587867  0.22411578     1.26100
H108        H  0.49814519  0.96788559  0.20169795     0.40300
O109        O  0.93419870  0.01224523  0.28072128    -0.79700
O110        O  0.07024467  0.02218388  0.23159295    -0.64400
O111        O  0.98614908  0.00391875  0.23504413    -1.11000
C112        C  0.01756142  0.92426042  0.31602646     1.07200
O113        O  0.08140284  0.97483845  0.22130925    -0.77600
O114        O  0.03931614  0.93119631  0.22344227    -0.65200
Ni115      Ni  0.95689796  0.03421518  0.24245181     1.34900
C116        C  0.01175606  0.92910874  0.21397534     0.85900
O117        O  0.02329435  0.04567528  0.19689387    -0.78100
O118        O  0.97553670  0.05965982  0.20445043    -0.88400
C119        C  0.08690505  0.00264717  0.21653554     0.85500
O120        O  0.97766759  0.05460861  0.28259589    -0.66600
O121        O  0.04375778  0.92778069  0.30157430    -0.85900
C122        C  0.00517129  0.05743627  0.29207711     0.86400
C123        C  0.00138697  0.06262644  0.18902875     1.07900
H124        H  0.03671853  0.99184093  0.29522129     0.39700
O125        O  0.03170872  0.98313884  0.27056987    -1.08500
O126        O  0.99115829  0.94395727  0.23037290    -0.65200
Ni127      Ni  0.99005244  0.97254634  0.27203685     1.26300
O128        O  0.02623624  0.04347796  0.27524365    -0.65400
O129        O  0.99539292  0.94095195  0.30810521    -0.77700
C130        C  0.92931078  0.98448749  0.28639294     0.85700
O131        O  0.94767904  0.96479404  0.27523716    -0.64900
Ni132      Ni  0.06092571  0.95294965  0.26187996     1.27400
Ni133      Ni  0.02792968  0.01455739  0.23384961     1.26100
H134        H  0.98138612  0.99510121  0.21038576     0.40300
O135        O  0.03582194  0.56923073  0.27820846    -0.79700
O136        O  0.03092299  0.43497012  0.22783541    -0.64400
O137        O  0.02216111  0.51961374  0.23020349    -1.11000
C138        C  0.93732068  0.49719656  0.30843396     1.07200
O139        O  0.98228952  0.42666199  0.21799142    -0.77600
O140        O  0.94567040  0.47319543  0.21390992    -0.65200
Ni141      Ni  0.05580147  0.54578062  0.23913404     1.34900
C142        C  0.94625732  0.50066568  0.20491074     0.85900
O143        O  0.06011608  0.47936959  0.19329962    -0.78100
O144        O  0.07929518  0.52567837  0.20042044    -0.88400
C145        C  0.00961521  0.41919123  0.21397852     0.85500
O146        O  0.07402526  0.52309556  0.27904019    -0.66600
O147        O  0.93708874  0.47171953  0.29190289    -0.85900
C148        C  0.07299555  0.49575378  0.28884759     0.86400
C149        C  0.07929028  0.49975298  0.18493331     1.07900
H150        H  0.00303268  0.47105697  0.29022610     0.39700
O151        O  0.99545577  0.47668163  0.26539881    -1.08500
O152        O  0.96144997  0.52021783  0.22367806    -0.65200
Ni153      Ni  0.98979061  0.51894678  0.26614990     1.26300
O154        O  0.05631863  0.47645067  0.27180135    -0.65400
O155        O  0.95748095  0.51711226  0.30224987    -0.77700
C156        C  0.00851072  0.57696040  0.28240638     0.85700
O157        O  0.98715805  0.56142736  0.26815983    -0.64900
Ni158      Ni  0.96169082  0.45085636  0.25535605     1.27400
Ni159      Ni  0.02792440  0.47744181  0.22951817     1.26100
H160        H  0.01433712  0.52508044  0.20511531     0.40300
C161        C  0.82982123  0.52266552  0.10356302    -0.27000
C162        C  0.85792844  0.53421687  0.09231944     0.06600
C163        C  0.85991325  0.55219742  0.05925330     0.26200
C164        C  0.83388348  0.55857806  0.03798761    -0.11500
C165        C  0.80568460  0.54726490  0.04971239    -0.25400
C166        C  0.80393088  0.52923266  0.08270939     0.37000
C167        C  0.88461344  0.52682613  0.11575054     0.06600
F168        F  0.88693992  0.56321197  0.04739913    -0.19200
H169        H  0.83564384  0.57266920  0.01276124     0.16500
F170        F  0.77713899  0.51761423  0.09455260    -0.22900
H171        H  0.82791955  0.50870558  0.12891760     0.18300
C172        C  0.89975647  0.54875480  0.13766538     0.26200
C173        C  0.92097510  0.54037586  0.16544580    -0.11400
C174        C  0.92736266  0.51000955  0.17173779    -0.25500
C175        C  0.91352697  0.48836813  0.14765050     0.37200
C176        C  0.89229522  0.49679199  0.12027967    -0.27100
F177        F  0.89252902  0.57800126  0.13405861    -0.19200
H178        H  0.93130028  0.55755280  0.18324068     0.16500
F179        F  0.91958881  0.45882921  0.15127174    -0.22900
H180        H  0.88090229  0.47964209  0.10346973     0.18300
C181        C  0.88825999  0.53702529  0.38142960    -0.27000
C182        C  0.86355743  0.51730689  0.38414706     0.06600
C183        C  0.86329071  0.49088358  0.36243149     0.26200
C184        C  0.88743899  0.48438837  0.33827982    -0.11500
C185        C  0.91241775  0.50404051  0.33543606    -0.25400
C186        C  0.91257829  0.53048356  0.35759646     0.37000
C187        C  0.83838490  0.52446055  0.41007401     0.06600
F188        F  0.83937899  0.47169613  0.36397036    -0.19200
H189        H  0.88636235  0.46402958  0.32146421     0.16500
F190        F  0.93623551  0.54998828  0.35664937    -0.22900
H191        H  0.88884729  0.55741348  0.39824559     0.18300
C192        C  0.83187546  0.50630900  0.44203610     0.26200
C193        C  0.80943723  0.51449645  0.46794120    -0.11400
C194        C  0.79324757  0.54086915  0.46235393    -0.25500
C195        C  0.79925537  0.55858254  0.42982919     0.37200
C196        C  0.82175046  0.55046628  0.40401470    -0.27100
F197        F  0.84810213  0.48140574  0.44902831    -0.19200
H198        H  0.80505188  0.50061768  0.99285517     0.16500
F199        F  0.78435098  0.58446926  0.42408810    -0.22900
H200        H  0.82657467  0.56472735  0.37956622     0.18300
C201        C  0.68758541  0.57138226  0.40430223    -0.27000
C202        C  0.68366222  0.54225788  0.38961042     0.06600
C203        C  0.70212734  0.51939002  0.40409937     0.26200
C204        C  0.72306438  0.52548592  0.43334535    -0.11500
C205        C  0.72557577  0.55420491  0.44926626    -0.25400
C206        C  0.70791255  0.57721164  0.43422461     0.37000
C207        C  0.65944640  0.53567450  0.36076633     0.06600
F208        F  0.69868952  0.49073263  0.39185830    -0.19200
H209        H  0.73607271  0.50733914  0.44513448     0.16500
F210        F  0.70996550  0.60525376  0.94901126    -0.22900
H211        H  0.67443195  0.58963759  0.39313639     0.18300
C212        C  0.63045793  0.54775807  0.36480588     0.26200
C213        C  0.60758282  0.54045775  0.33857569    -0.11400
C214        C  0.61267949  0.52031701  0.30841367    -0.25500
C215        C  0.64159980  0.50849493  0.30397967     0.37200
C216        C  0.66478244  0.51647294  0.32953954    -0.27100
F217        F  0.62364885  0.56541948  0.39519763    -0.19200
H218        H  0.58537785  0.54951638  0.34294369     0.16500
F219        F  0.64750818  0.48934401  0.27480748    -0.22900
H220        H  0.68693781  0.50740309  0.32499797     0.18300
C221        C  0.13216680  0.49766334  0.36800854    -0.27000
C222        C  0.13683621  0.46716992  0.37465468     0.06600
C223        C  0.11809870  0.44605331  0.35609260     0.26200
C224        C  0.09648044  0.45543008  0.32933196    -0.11500
C225        C  0.09305030  0.48601666  0.32082159    -0.25400
C226        C  0.11057014  0.50709815  0.34163582     0.37000
C227        C  0.16310770  0.45802045  0.39811915     0.06600
F228        F  0.12187210  0.41635886  0.36210623    -0.19200
H229        H  0.08323871  0.43863757  0.31422114     0.16500
F230        F  0.10764856  0.53693722  0.33585463    -0.22900
H231        H  0.14602479  0.51429623  0.38255116     0.18300
C232        C  0.19211111  0.46806984  0.38784804     0.26200
C233        C  0.21700270  0.46067151  0.41026665    -0.11400
C234        C  0.21357958  0.44335612  0.44360638    -0.25500
C235        C  0.18470077  0.43264736  0.45358569     0.37200
C236        C  0.15964374  0.43993190  0.43090151    -0.27100
F237        F  0.19640306  0.48479827  0.35571322    -0.19200
H238        H  0.23908211  0.46880352  0.40178891     0.16500
F239        F  0.18083689  0.41464256  0.98460759    -0.22900
H240        H  0.13752615  0.43177022  0.43912519     0.18300
C241        C  0.18480984  0.48810749  0.04965764    -0.27000
C242        C  0.17711874  0.47048630  0.08173208     0.06600
C243        C  0.19357248  0.44443481  0.08917153     0.26200
C244        C  0.21638789  0.43571352  0.06422807    -0.11500
C245        C  0.22325997  0.45270316  0.03148487    -0.25400
C246        C  0.20779304  0.47938259  0.02478853     0.37000
C247        C  0.15143826  0.47868652  0.10668679     0.06600
F248        F  0.18760331  0.42740580  0.12060513    -0.19200
H249        H  0.22827903  0.41520145  0.56986702     0.16500
F250        F  0.21491351  0.49690053  0.99421916    -0.22900
H251        H  0.17254674  0.50828259  0.04337442     0.18300
C252        C  0.14898757  0.50759903  0.12211640     0.26200
C253        C  0.12519051  0.51446526  0.14676544    -0.11400
C254        C  0.10324050  0.49272846  0.15649056    -0.25500
C255        C  0.10536397  0.46398104  0.13997420     0.37200
C256        C  0.12917556  0.45720039  0.11546169    -0.27100
F257        F  0.17018223  0.52892338  0.11451108    -0.19200
H258        H  0.12431035  0.53676272  0.15879003     0.16500
F259        F  0.08477552  0.44210827  0.14776333    -0.22900
H260        H  0.13026194  0.43494868  0.10329085     0.18300
C261        C  0.32192239  0.42253031  0.10143172    -0.27000
C262        C  0.32878092  0.45231449  0.11193526     0.06600
C263        C  0.31498670  0.47555204  0.09110504     0.26200
C264        C  0.29528873  0.46901012  0.06064575    -0.11500
C265        C  0.28973657  0.43938030  0.04934031    -0.25400
C266        C  0.30304687  0.41612348  0.07008697     0.37000
C267        C  0.35246983  0.45882635  0.14166438     0.06600
F268        F  0.32225532  0.50462965  0.09797425    -0.19200
H269        H  0.28580235  0.48721702  0.04427520     0.16500
F270        F  0.29829125  0.38723016  0.05947304    -0.22900
H271        H  0.33190945  0.40410755  0.11683053     0.18300
C272        C  0.34987867  0.48244750  0.16828097     0.26200
C273        C  0.37419832  0.49051631  0.19213340    -0.11400
C274        C  0.40118664  0.47447027  0.19131867    -0.25500
C275        C  0.40268322  0.44920407  0.16721949     0.37200
C276        C  0.37890892  0.44191326  0.14234129    -0.27100
F277        F  0.32382915  0.49768085  0.17152611    -0.19200
H278        H  0.37195507  0.50953450  0.21111739     0.16500
F279        F  0.42762529  0.43213738  0.16631983    -0.22900
H280        H  0.38173250  0.42347783  0.12257658     0.18300
C281        C  0.44637055  0.17218426  0.08531537    -0.27000
C282        C  0.47218191  0.17494909  0.10839472     0.06600
C283        C  0.49181853  0.19953260  0.10219265     0.26200
C284        C  0.48670885  0.21957611  0.07185235    -0.11500
C285        C  0.46173028  0.21575293  0.04738444    -0.25400
C286        C  0.44103865  0.19235260  0.05544103     0.37000
C287        C  0.47977914  0.15061475  0.13602815     0.06600
F288        F  0.51645764  0.20367825  0.12478755    -0.19200
H289        H  0.50329844  0.23695898  0.06629938     0.16500
F290        F  0.41608302  0.18815360  0.03341722    -0.22900
H291        H  0.43094300  0.15346395  0.08915043     0.18300
C292        C  0.45810029  0.13819393  0.16110701     0.26200
C293        C  0.46511952  0.11362241  0.18442256    -0.11400
C294        C  0.49388826  0.10091366  0.18339800    -0.25500
C295        C  0.51556125  0.11350601  0.15838311     0.37200
C296        C  0.50850460  0.13796862  0.13513373    -0.27100
F297        F  0.43014417  0.14987595  0.16323115    -0.19200
H298        H  0.44794834  0.10448360  0.20326094     0.16500
F299        F  0.54331761  0.10151895  0.15508135    -0.22900
H300        H  0.52534954  0.14643651  0.11534052     0.18300
C301        C  0.49911225  0.31413879  0.38655772    -0.27000
C302        C  0.48560528  0.34172203  0.39370698     0.06200
C303        C  0.46642926  0.34449787  0.42559250     0.26200
C304        C  0.46080688  0.31983845  0.44969362    -0.11500
C305        C  0.47390883  0.29209312  0.44188480    -0.25400
C306        C  0.49322638  0.28953808  0.41017986     0.37000
C307        C  0.49199845  0.36720580  0.36753864     0.06600
F308        F  0.45335451  0.37102925  0.43346311    -0.19200
H309        H  0.44562421  0.32215975  0.47376038     0.16500
F310        F  0.50646415  0.26311989  0.40205814    -0.22900
H311        H  0.51393445  0.31154694  0.36215823     0.18300
C312        C  0.52173842  0.37711563  0.36185715     0.26200
C313        C  0.52825277  0.39938970  0.33488742    -0.11400
C314        C  0.50534446  0.41216609  0.31243705    -0.25500
C315        C  0.47536617  0.40241186  0.31854499     0.37200
C316        C  0.46885340  0.38026255  0.34603496    -0.27100
F317        F  0.54460268  0.36504187  0.38231098    -0.19200
H318        H  0.55153080  0.40623694  0.33119718     0.16500
F319        F  0.45240674  0.41360623  0.29744564    -0.22900
H320        H  0.44581208  0.37259573  0.34969473     0.18300
C321        C  0.48497369  0.38413295  0.10002661    -0.27000
C322        C  0.50244923  0.35835277  0.10221929     0.06600
C323        C  0.52734034  0.35807576  0.12717727     0.26200
C324        C  0.53355974  0.38266361  0.15107460    -0.11500
C325        C  0.51536633  0.40818982  0.15004522    -0.25400
C326        C  0.49157181  0.40897886  0.12312946     0.37000
C327        C  0.49446085  0.33194744  0.07832323     0.06600
F328        F  0.54492301  0.33357713  0.12947737    -0.19200
H329        H  0.55214019  0.38133492  0.17115797     0.16500
F330        F  0.47468301  0.43378751  0.11886161    -0.22900
H331        H  0.46618535  0.38503385  0.08018507     0.18300
C332        C  0.46650644  0.31718559  0.08277902     0.26200
C333        C  0.45856627  0.29308973  0.05891597    -0.11400
C334        C  0.47812149  0.28372394  0.02989987    -0.25500
C335        C  0.50627273  0.29812463  0.02590585     0.37200
C336        C  0.51440690  0.32192635  0.05009216    -0.27100
F337        F  0.44689567  0.32617669  0.11013286    -0.19200
H338        H  0.43678021  0.28226432  0.06220372     0.16500
F339        F  0.52576421  0.28921917  0.49840547    -0.22900
H340        H  0.53600024  0.33303637  0.04621634     0.18300
C341        C  0.54604196  0.86049450  0.34108253    -0.27000
C342        C  0.52223197  0.84175947  0.35308203     0.06600
C343        C  0.49349559  0.84593985  0.33719796     0.26200
C344        C  0.48834888  0.86943328  0.31162432    -0.11500
C345        C  0.51168989  0.88940237  0.30119765    -0.25400
C346        C  0.54093711  0.88410952  0.31541394     0.37000
C347        C  0.52637784  0.82061711  0.38558193     0.06600
F348        F  0.47011214  0.82777854  0.34738617    -0.19200
H349        H  0.46570809  0.87251565  0.30091722     0.16500
F350        F  0.56433385  0.90258368  0.30627280    -0.22900
H351        H  0.56831604  0.85784674  0.35319698     0.18300
C352        C  0.54919730  0.79906014  0.38579320     0.26200
C353        C  0.55327114  0.78064696  0.41808637    -0.11400
C354        C  0.53503975  0.78395477  0.45067262    -0.25500
C355        C  0.51208524  0.80516356  0.45013075     0.37200
C356        C  0.50776230  0.82314094  0.41790602    -0.27100
F357        F  0.56752737  0.79592702  0.35497545    -0.19200
H358        H  0.57125606  0.76456330  0.41819773     0.16500
F359        F  0.49398219  0.80872269  0.48109892    -0.22900
H360        H  0.49029650  0.83977392  0.41864194     0.18300
C361        C  0.51293883  0.65837668  0.06609872    -0.27000
C362        C  0.53244943  0.65214120  0.09687023     0.06600
C363        C  0.55736572  0.67137332  0.10313331     0.26200
C364        C  0.56198218  0.69651053  0.07974440    -0.11500
C365        C  0.54176733  0.70332245  0.04999606    -0.25400
C366        C  0.51697079  0.68404203  0.04364164     0.37000
C367        C  0.52515333  0.62725331  0.12406446     0.06600
F368        F  0.57624086  0.66702034  0.13326776    -0.19200
H369        H  0.58087006  0.71136486  0.08579369     0.16500
F370        F  0.49507716  0.69118816  0.51825345    -0.22900
H371        H  0.49366510  0.64396812  0.06036016     0.18300
C372        C  0.49554968  0.62307550  0.13757589     0.26200
C373        C  0.48882435  0.60059795  0.16412258    -0.11400
C374        C  0.51136861  0.58196604  0.17866594    -0.25500
C375        C  0.54098810  0.58588001  0.16509457     0.37200
C376        C  0.54767985  0.60814365  0.13782793    -0.27100
F377        F  0.47318103  0.64159456  0.12657128    -0.19200
H378        H  0.46589036  0.59849134  0.17432444     0.16500
F379        F  0.56341563  0.56813505  0.17787224    -0.22900
H380        H  0.57055186  0.61047275  0.12751608     0.18300
C381        C  0.55206595  0.67145116  0.42764913    -0.27000
C382        C  0.52374818  0.66844427  0.40970876     0.06600
C383        C  0.50152838  0.68972266  0.41792628     0.26200
C384        C  0.50772310  0.71337405  0.44319270    -0.11500
C385        C  0.53551289  0.71540157  0.46215571    -0.25400
C386        C  0.55779363  0.69451734  0.45392912     0.37000
C387        C  0.51727705  0.64236810  0.38409248     0.06600
F388        F  0.47326385  0.68671041  0.40348761    -0.19200
H389        H  0.49024948  0.72917839  0.94981595     0.16500
F390        F  0.58503503  0.69649999  0.47149810    -0.22900
H391        H  0.56969527  0.65566848  0.42165407     0.18300
C392        C  0.50210371  0.64572430  0.34878386     0.26200
C393        C  0.49548657  0.62074817  0.32581541    -0.11400
C394        C  0.50465057  0.59203539  0.33683746    -0.25500
C395        C  0.52055112  0.58878183  0.37159757     0.37200
C396        C  0.52646951  0.61361971  0.39502859    -0.27100
F397        F  0.49468241  0.67323941  0.33566486    -0.19200
H398        H  0.48400195  0.62402428  0.29868122     0.16500
F399        F  0.52999664  0.56152542  0.38332154    -0.22900
H400        H  0.53810539  0.61028986  0.42203938     0.18300
C401        C  0.14622259  0.04902300  0.16275669    -0.27000
C402        C  0.15715215  0.02802450  0.13617944     0.06600
C403        C  0.14503932  0.99870267  0.13724768     0.26200
C404        C  0.12313282  0.99072116  0.16421762    -0.11500
C405        C  0.11178143  0.01177421  0.19020508    -0.25400
C406        C  0.12345937  0.04121585  0.18900956     0.37000
C407        C  0.18018784  0.03670005  0.10659946     0.06600
F408        F  0.15323178  0.97786579  0.11108068    -0.19200
H409        H  0.11425638  0.96804017  0.16375074     0.16500
F410        F  0.11302498  0.06247237  0.21318842    -0.22900
H411        H  0.15527521  0.07161059  0.16331214     0.18300
C412        C  0.17864912  0.06408089  0.08660234     0.26200
C413        C  0.19829899  0.07024944  0.05609989    -0.11400
C414        C  0.21955231  0.04922300  0.04413055    -0.25500
C415        C  0.22165525  0.02223858  0.06465218     0.37200
C416        C  0.20279916  0.01652896  0.09607083    -0.27100
F417        F  0.15694160  0.08415445  0.09463181    -0.19200
H418        H  0.19595571  0.09108346  0.54057470     0.16500
F419        F  0.23999119  0.00019575  0.05258136    -0.22900
H420        H  0.20520009  0.99558213  0.11126969     0.18300
C421        C  0.31740907  0.02205760  0.38017390    -0.27000
C422        C  0.34620221  0.03152811  0.39191716     0.06600
C423        C  0.34939095  0.04777118  0.42629641     0.26200
C424        C  0.32403739  0.05413753  0.44868105    -0.11500
C425        C  0.29519663  0.04441293  0.43703014    -0.25400
C426        C  0.29213050  0.02855169  0.40226632     0.37000
C427        C  0.37254960  0.02363334  0.36814853     0.06600
F428        F  0.37703047  0.05691070  0.43853184    -0.19200
H429        H  0.32691899  0.06679109  0.47498496     0.16500
F430        F  0.26471192  0.01866520  0.39005006    -0.22900
H431        H  0.31454241  0.00954567  0.35372757     0.18300
C432        C  0.38013958  0.99355415  0.36327140     0.26200
C433        C  0.40251847  0.98558902  0.33723122    -0.11400
C434        C  0.41771179  0.00738893  0.31500319    -0.25500
C435        C  0.41093130  0.03776762  0.32125594     0.37200
C436        C  0.38857004  0.04570532  0.34768202    -0.27100
F437        F  0.36536712  0.97177027  0.38316723    -0.19200
H438        H  0.40727720  0.96207160  0.33370211     0.16500
F439        F  0.42486927  0.05975240  0.30080593    -0.22900
H440        H  0.38289276  0.06903013  0.35104315     0.18300
C441        C  0.38206766  0.03485723  0.11009660    -0.27000
C442        C  0.36006277  0.01314716  0.10109390     0.06600
C443        C  0.36264352  0.98433576  0.11689447     0.26200
C444        C  0.38632347  0.97777772  0.14205221    -0.11500
C445        C  0.40809238  0.99969617  0.15180383    -0.25400
C446        C  0.40579988  0.02836103  0.13503404     0.37000
C447        C  0.33448366  0.02091980  0.07551128     0.06600
F448        F  0.34171952  0.96277697  0.10903754    -0.19200
H449        H  0.38736058  0.95554609  0.15426871     0.16500
F450        F  0.42612477  0.05045649  0.14304743    -0.22900
H451        H  0.38087094  0.05704071  0.09773004     0.18300
C452        C  0.31751452  0.04674635  0.08230257     0.26200
C453        C  0.29417194  0.05448440  0.05735042    -0.11400
C454        C  0.28731286  0.03672805  0.02522264    -0.25500
C455        C  0.30365044  0.01049483  0.01894196     0.37200
C456        C  0.32711810  0.00279194  0.04376843    -0.27100
F457        F  0.32331102  0.06435642  0.11328856    -0.19200
H458        H  0.28167385  0.07466341  0.06266884     0.16500
F459        F  0.29675265  0.99228128  0.48892640    -0.22900
H460        H  0.33985229  0.98285684  0.03786966     0.18300
C461        C  0.81292802  0.98053820  0.40280920    -0.27000
C462        C  0.82537434  0.95693431  0.38162980     0.06600
C463        C  0.81509992  0.92754119  0.38903166     0.26200
C464        C  0.79485679  0.92177893  0.41902829    -0.11500
C465        C  0.78381810  0.94522491  0.44143088    -0.25400
C466        C  0.79220628  0.97477202  0.43231821     0.37000
C467        C  0.85099199  0.96272223  0.35480999     0.06600
F468        F  0.82533187  0.90428770  0.36795633    -0.19200
H469        H  0.78863491  0.89886415  0.42574168     0.16500
F470        F  0.78224287  0.99782625  0.45398098    -0.22900
H471        H  0.82054643  0.00334088  0.39803736     0.18300
C472        C  0.85036199  0.98615329  0.32781085     0.26200
C473        C  0.87562260  0.99254935  0.30501982    -0.11400
C474        C  0.90194678  0.97561422  0.30830181    -0.25500
C475        C  0.90245132  0.95195791  0.33490456     0.37200
C476        C  0.87728785  0.94569439  0.35787236    -0.27100
F477        F  0.82532922  0.00284032  0.32335601    -0.19200
H478        H  0.87467451  0.01096146  0.28484564     0.16500
F479        F  0.92784982  0.93604945  0.34044421    -0.22900
H480        H  0.87876109  0.92808334  0.37912925     0.18300
C481        C  0.65779846  0.93971533  0.06720142    -0.27000
C482        C  0.66104402  0.96002057  0.09784153     0.06600
C483        C  0.68945607  0.97327431  0.10475595     0.26200
C484        C  0.71387234  0.96670601  0.08117101    -0.11500
C485        C  0.71048393  0.94714506  0.04992503    -0.25400
C486        C  0.68228690  0.93343302  0.04320622     0.37000
C487        C  0.63493959  0.96789908  0.12232137     0.06600
F488        F  0.69371464  0.99230374  0.13473476    -0.19200
H489        H  0.73552582  0.97716849  0.08709627     0.16500
F490        F  0.67863349  0.91350740  0.01411071    -0.22900
H491        H  0.63619502  0.92907148  0.06157663     0.18300
C492        C  0.62704257  0.99795875  0.12702821     0.26200
C493        C  0.60442528  0.00582769  0.15272406    -0.11400
C494        C  0.58898037  0.98399112  0.17453733    -0.25500
C495        C  0.59593825  0.95364331  0.16846920     0.37200
C496        C  0.61867436  0.94577220  0.14249343    -0.27100
F497        F  0.64145913  0.01986044  0.10693381    -0.19200
H498        H  0.59946499  0.02932109  0.15605283     0.16500
F499        F  0.58171408  0.93163989  0.18858076    -0.22900
H500        H  0.62433806  0.92244399  0.13915169     0.18300
C501        C  0.64516871  0.00592091  0.36556161    -0.27000
C502        C  0.64364402  0.97983553  0.38780584     0.06600
C503        C  0.61813224  0.96107690  0.38498657     0.26200
C504        C  0.59475605  0.96810543  0.35971440    -0.11500
C505        C  0.59638861  0.99392892  0.33659329    -0.25400
C506        C  0.62196194  0.01288667  0.33996375     0.37000
C507        C  0.66916663  0.97174620  0.41289535     0.06600
F508        F  0.61583657  0.93596732  0.40677359    -0.19200
H509        H  0.57546004  0.95309465  0.35802491     0.16500
F510        F  0.62520230  0.03760437  0.31764122    -0.22900
H511        H  0.66481652  0.02048548  0.36724565     0.18300
C512        C  0.68524021  0.94546961  0.40600041     0.26200
C513        C  0.70898556  0.93757608  0.43016175    -0.11400
C514        C  0.71690026  0.95558745  0.46167506    -0.25500
C515        C  0.70134781  0.98225197  0.46808066     0.37200
C516        C  0.67770028  0.99031166  0.44370081    -0.27100
F517        F  0.67807942  0.92760590  0.37570379    -0.19200
H518        H  0.72088379  0.91703167  0.42486257     0.16500
F519        F  0.70924963  0.00053166  0.99763675    -0.22900
H520        H  0.66574857  0.01081394  0.44912113     0.18300
C521        C  0.01634016  0.17749367  0.39532108    -0.27000
C522        C  0.03004106  0.15021322  0.40388098     0.06600
C523        C  0.04945464  0.14849692  0.43578853     0.26200
C524        C  0.05518377  0.17389731  0.45844284    -0.11500
C525        C  0.04180119  0.20124688  0.44926829    -0.25400
C526        C  0.02216428  0.20276917  0.41768869     0.37000
C527        C  0.02413964  0.12410496  0.37865260     0.06600
F528        F  0.06266574  0.12229112  0.44507699    -0.19200
H529        H  0.07049482  0.17240348  0.48260364     0.16500
F530        F  0.00855477  0.22880867  0.40850214    -0.22900
H531        H  0.00146930  0.17935241  0.37074990     0.18300
C532        C  0.99445921  0.11527735  0.37008679     0.26200
C533        C  0.98874644  0.09288243  0.34308477    -0.11400
C534        C  0.01243774  0.07883780  0.32361551    -0.25500
C535        C  0.04229156  0.08700610  0.33323547     0.37200
C536        C  0.04797878  0.10941739  0.36059424    -0.27100
F537        F  0.97088744  0.12865061  0.38748960    -0.19200
H538        H  0.96551073  0.08707491  0.33682895     0.16500
F539        F  0.06597519  0.07425375  0.31535867    -0.22900
H540        H  0.07102348  0.11613840  0.36659173     0.18300
C541        C  0.04947154  0.18153620  0.09334014    -0.27000
C542        C  0.02422128  0.16290225  0.08696314     0.06600
C543        C  0.00504117  0.16902734  0.05580826     0.26200
C544        C  0.01153251  0.19287422  0.03106877    -0.11500
C545        C  0.03724725  0.21093571  0.03681629    -0.25400
C546        C  0.05598326  0.20533456  0.06848692     0.37000
C547        C  0.01826335  0.13690421  0.11245209     0.06600
F548        F  0.98071622  0.15123400  0.04838395    -0.19200
H549        H  0.99680137  0.19697967  0.50687081     0.16500
F550        F  0.08125944  0.22208437  0.07437241    -0.22900
H551        H  0.06434836  0.17743702  0.11740905     0.18300
C552        C  0.04084567  0.11604250  0.12022934     0.26200
C553        C  0.03499615  0.09168260  0.14439591    -0.11400
C554        C  0.00654020  0.08758541  0.16145308    -0.25500
C555        C  0.98388077  0.10847767  0.15331828     0.37200
C556        C  0.98979473  0.13278395  0.12909232    -0.27100
F557        F  0.06846864  0.11894155  0.10399199    -0.19200
H558        H  0.05296044  0.07614395  0.14996762     0.16500
F559        F  0.95609766  0.10588821  0.16916888    -0.22900
H560        H  0.97216782  0.14874878  0.12377246     0.18300
C561        C  0.01646997  0.29793368  0.10294687    -0.27000
C562        C  0.03665530  0.32173396  0.11048678     0.06600
C563        C  0.06328557  0.32396538  0.08894500     0.26200
C564        C  0.06917518  0.30321239  0.06004934    -0.11500
C565        C  0.04850452  0.28008013  0.05135575    -0.25400
C566        C  0.02207963  0.27745832  0.07342452     0.37000
C567        C  0.02908656  0.34522949  0.13895127     0.06600
F568        F  0.08271208  0.34733876  0.09405844    -0.19200
H569        H  0.08946347  0.30603822  0.04318053     0.16500
F570        F  0.00051126  0.25679177  0.06472720    -0.22900
H571        H  0.99577709  0.29579050  0.11913925     0.18300
C572        C  0.00109870  0.35944715  0.13752113     0.26200
C573        C  0.99478096  0.38272894  0.16286249    -0.11400
C574        C  0.01628563  0.39272609  0.18987319    -0.25500
C575        C  0.04415218  0.37822319  0.19171085     0.37200
C576        C  0.05035459  0.35463939  0.16656564    -0.27100
F577        F  0.98035535  0.35187246  0.11038194    -0.19200
H578        H  0.97328417  0.39367283  0.16034872     0.16500
F579        F  0.06537298  0.38672283  0.21776392    -0.22900
H580        H  0.07194743  0.34381684  0.16845909     0.18300
C581        C  0.96847252  0.88718888  0.13555727    -0.27000
C582        C  0.98805770  0.86357656  0.12753617     0.06600
C583        C  0.01586868  0.86264136  0.14691037     0.26200
C584        C  0.02348729  0.88441074  0.17410672    -0.11500
C585        C  0.00356886  0.90752572  0.18309126    -0.25400
C586        C  0.97601714  0.90891250  0.16312760     0.37000
C587        C  0.97915307  0.83936569  0.10022608     0.06600
F588        F  0.03524559  0.83993175  0.14090509    -0.19200
H589        H  0.04479286  0.88257080  0.18903404     0.16500
F590        F  0.95644790  0.93129528  0.16996861    -0.22900
H591        H  0.94720627  0.88877775  0.12050001     0.18300
C592        C  0.95083121  0.82496587  0.10289486     0.26200
C593        C  0.94394599  0.80022341  0.07965821    -0.11400
C594        C  0.96505381  0.78937306  0.05337776    -0.25500
C595        C  0.99315134  0.80401960  0.05027825     0.37200
C596        C  0.99985964  0.82900004  0.07302003    -0.27100
F597        F  0.93043488  0.83369169  0.12943320    -0.19200
H598        H  0.92235627  0.78897541  0.08290667     0.16500
F599        F  0.01499561  0.79299188  0.02737732    -0.22900
H600        H  0.02174162  0.83971932  0.07018269     0.18300
C601        C  0.02727578  0.86186087  0.38935559    -0.27000
C602        C  0.99839759  0.84853927  0.38882548     0.06600
C603        C  0.97658968  0.85989738  0.36362053     0.26200
C604        C  0.98315385  0.88465357  0.34068918    -0.11500
C605        C  0.01170678  0.89846573  0.34170667    -0.25400
C606        C  0.03403995  0.88646563  0.36570720     0.37000
C607        C  0.99032340  0.82388953  0.41566999     0.06600
F608        F  0.94894852  0.84676595  0.36069323    -0.19200
H609        H  0.96591397  0.89269584  0.32138872     0.16500
F610        F  0.06203796  0.89893896  0.36710563    -0.22900
H611        H  0.04439469  0.85364593  0.40869996     0.18300
C612        C  0.00862134  0.79866334  0.42025462     0.26200
C613        C  0.00005348  0.77568156  0.44553089    -0.11400
C614        C  0.97335617  0.77767650  0.46676346    -0.25500
C615        C  0.95504263  0.80271192  0.46192655     0.37200
C616        C  0.96356461  0.82559990  0.43689128    -0.27100
F617        F  0.03453019  0.79606705  0.40007916    -0.19200
H618        H  0.01457317  0.75667545  0.44932055     0.16500
F619        F  0.92883201  0.80498442  0.48154702    -0.22900
H620        H  0.94928519  0.84492499  0.43435368     0.18300
C621        C  0.99731557  0.66594000  0.42843197    -0.27000
C622        C  0.98420469  0.67099179  0.39232901     0.06600
C623        C  0.96464407  0.69529692  0.38791206     0.26200
C624        C  0.95825352  0.71391186  0.41932084    -0.11500
C625        C  0.97089801  0.70820856  0.45557193    -0.25400
C626        C  0.99068372  0.68418622  0.45971301     0.37000
C627        C  0.99029099  0.64979140  0.36041264     0.06600
F628        F  0.95174710  0.70097420  0.35333731    -0.19200
H629        H  0.94280280  0.73220132  0.41563709     0.16500
F630        F  0.00354811  0.67824167  0.49425290    -0.22900
H631        H  0.01217318  0.64723388  0.43269614     0.18300
C632        C  0.01997453  0.64223651  0.35103135     0.26200
C633        C  0.02559012  0.61946070  0.32456086    -0.11400
C634        C  0.00179857  0.60344484  0.30690616    -0.25500
C635        C  0.97201766  0.61185140  0.31526884     0.37200
C636        C  0.96644841  0.63480840  0.34168603    -0.27100
F637        F  0.04362621  0.65656298  0.36803707    -0.19200
H638        H  0.04874704  0.61381993  0.31875695     0.16500
F639        F  0.94817471  0.59730173  0.29906978    -0.22900
H640        H  0.94339689  0.64001890  0.34876363     0.18300
N641        N  0.96562631  0.75547451  0.99516525    -0.02300
C642        C  0.96221770  0.72553293  0.99004198     0.00300
C643        C  0.95241718  0.71232795  0.52383557    -0.22600
C644        C  0.95012609  0.73479704  0.55065876    -0.22800
C645        C  0.95887619  0.76097879  0.53252625     0.00200
H646        H  0.94843340  0.68871861  0.52883959     0.14000
H647        H  0.94454017  0.73202894  0.58070807     0.14000
N648        N  0.04541818  0.23346730  0.50897659    -0.02300
C649        C  0.05279262  0.26268997  0.51539934     0.00300
C650        C  0.06191999  0.27606467  0.98138612    -0.22600
C651        C  0.05960595  0.25471921  0.95318184    -0.22800
C652        C  0.04935534  0.22887180  0.97075599     0.00200
H653        H  0.06825884  0.29928093  0.97712281     0.14000
H654        H  0.06426559  0.25787206  0.92293383     0.14000
N655        N  0.73999328  0.94593527  0.98769205    -0.02300
C656        C  0.76852256  0.93854150  0.97824848     0.00300
C657        C  0.78371747  0.92860820  0.51038592    -0.22600
C658        C  0.76387667  0.93006234  0.54066282    -0.22800
C659        C  0.73711041  0.94057112  0.52593436     0.00200
H660        H  0.80712151  0.92237747  0.51198764     0.14000
H661        H  0.76863353  0.92462654  0.57034325     0.14000
N662        N  0.26440222  0.04601017  0.49855014    -0.02300
C663        C  0.23572679  0.05400226  0.50708101     0.00300
C664        C  0.22157755  0.06442371  0.97433300    -0.22600
C665        C  0.24191206  0.06242491  0.94477441    -0.22800
C666        C  0.26804258  0.05106026  0.96025723     0.00200
H667        H  0.19851583  0.07162220  0.97182623     0.14000
H668        H  0.23794236  0.06840255  0.91507798     0.14000
N669        N  0.54040037  0.73753310  0.99154805    -0.02300
C670        C  0.54133698  0.76760426  0.98671297     0.00300
C671        C  0.54678814  0.78161323  0.52150079    -0.22600
C672        C  0.54915649  0.75938640  0.54865742    -0.22800
C673        C  0.54475722  0.73248210  0.52967659     0.00200
H674        H  0.54816138  0.80545205  0.52670497     0.14000
H675        H  0.55230517  0.76259836  0.57923245     0.14000
N676        N  0.46848817  0.26112656  0.50285506    -0.02300
C677        C  0.45952139  0.23239997  0.51026093     0.00300
C678        C  0.45133041  0.21843311  0.97614697    -0.22600
C679        C  0.45518355  0.23896537  0.94723312    -0.22800
C680        C  0.46571382  0.26494534  0.96423849     0.00200
H681        H  0.44461635  0.19528577  0.97221969     0.14000
H682        H  0.45125994  0.23517284  0.91690727     0.14000
N683        N  0.24505411  0.44187513  0.50453212    -0.02300
C684        C  0.27345133  0.43324489  0.51294594     0.00300
C685        C  0.28721848  0.42229042  0.98040152    -0.22600
C686        C  0.26656316  0.42433630  0.95093835    -0.22800
C687        C  0.24073512  0.43617265  0.96655430     0.00200
H688        H  0.31021365  0.41491281  0.97796792     0.14000
H689        H  0.27014726  0.41828016  0.92121327     0.14000
N690        N  0.77217687  0.55071697  0.99088255    -0.02300
C691        C  0.74332824  0.55911072  0.98482432     0.00300
C692        C  0.73075040  0.56888495  0.51877928    -0.22600
C693        C  0.75248557  0.56613719  0.54673048    -0.22800
C694        C  0.77770871  0.55494994  0.52889605     0.00200
H695        H  0.70781446  0.57591553  0.52311195     0.14000
H696        H  0.74998964  0.57125182  0.57693616     0.14000
O697        O  0.58534121  0.48279786  0.77408088    -0.79700
O698        O  0.44982104  0.46767828  0.71842391    -0.64400
O699        O  0.53239691  0.49052657  0.72906526    -1.11000
C700        C  0.49914940  0.56616196  0.81088642     1.07200
O701        O  0.42959099  0.51268281  0.72353923    -0.77600
O702        O  0.47588473  0.55192124  0.71176046    -0.65200
Ni703      Ni  0.56204573  0.46006975  0.73661649     1.34900
C704        C  0.50336724  0.55980310  0.70894362     0.85900
O705        O  0.49881166  0.45129864  0.68304377    -0.78100
O706        O  0.54366234  0.43329394  0.69915917    -0.88400
C707        C  0.42825976  0.48541141  0.71289417     0.85500
O708        O  0.54131573  0.44064253  0.77759132    -0.66600
O709        O  0.47650711  0.56639691  0.78831219    -0.85900
C710        C  0.51356762  0.43445908  0.78215465     0.86400
C711        C  0.51976025  0.43262379  0.67877060     1.07900
H712        H  0.47833595  0.49556488  0.78792768     0.39700
O713        O  0.48426554  0.50612589  0.76486796    -1.08500
O714        O  0.52360949  0.55050495  0.73207273    -0.65200
Ni715      Ni  0.52548996  0.51825230  0.76982621     1.26300
O716        O  0.49301448  0.44606040  0.76149334    -0.65400
O717        O  0.51788116  0.54510049  0.81091970    -0.77700
C718        C  0.58710902  0.51018292  0.78400859     0.85700
O719        O  0.56684021  0.52867257  0.77556359    -0.64900
Ni720      Ni  0.45557074  0.53726279  0.75600156     1.27400
Ni721      Ni  0.49120298  0.47828344  0.72405420     1.26100
H722        H  0.53800490  0.50129217  0.70603884     0.40300
O723        O  0.47703469  0.92330347  0.77314244    -0.79700
O724        O  0.47972054  0.05829540  0.72107606    -0.64400
O725        O  0.48989271  0.97374784  0.72618336    -1.11000
C726        C  0.57225025  0.99993654  0.80797357     1.07200
O727        O  0.52827409  0.06668161  0.71161754    -0.77600
O728        O  0.56739273  0.02139337  0.71314646    -0.65200
Ni729      Ni  0.45625810  0.94749754  0.73541157     1.34900
C730        C  0.56760968  0.99373606  0.70495531     0.85900
O731        O  0.45229492  0.01291300  0.68656961    -0.78100
O732        O  0.43159494  0.96786140  0.69780649    -0.88400
C733        C  0.50092998  0.07413103  0.70716761     0.85500
O734        O  0.43921887  0.96986432  0.77635196    -0.66600
O735        O  0.57188157  0.02541255  0.79139260    -0.85900
C736        C  0.43844340  0.99764997  0.78381355     0.86400
C737        C  0.43222204  0.99298612  0.68028315     1.07900
H738        H  0.50670476  0.02361772  0.78567989     0.39700
O739        O  0.51500818  0.01780257  0.76120875    -1.08500
O740        O  0.55112226  0.97447556  0.72227071    -0.65200
Ni741      Ni  0.52169638  0.97577561  0.76331047     1.26300
O742        O  0.45376196  0.01707364  0.76504216    -0.65400
O743        O  0.55325318  0.97908505  0.80061109    -0.77700
C744        C  0.50456037  0.91663046  0.77832674     0.85700
O745        O  0.52568734  0.93347767  0.76630705    -0.64900
Ni746      Ni  0.54827648  0.04436986  0.75184982     1.27400
Ni747      Ni  0.48340311  0.01587871  0.72411714     1.26100
H748        H  0.49814415  0.96788472  0.70170017     0.40300
O749        O  0.93419550  0.01224346  0.78071910    -0.79700
O750        O  0.07024197  0.02218415  0.73158833    -0.64400
O751        O  0.98614638  0.00391826  0.73504225    -1.11000
C752        C  0.01756169  0.92426206  0.81602661     1.07200
O753        O  0.08139999  0.97483856  0.72130557    -0.77600
O754        O  0.03931472  0.93119511  0.72344292    -0.65200
Ni755      Ni  0.95689529  0.03421464  0.74245114     1.34900
C756        C  0.01175467  0.92910744  0.71397595     0.85900
O757        O  0.02329068  0.04567419  0.69688965    -0.78100
O758        O  0.97553417  0.05966068  0.70445121    -0.88400
C759        C  0.08690248  0.00264718  0.71653164     0.85500
O760        O  0.97766493  0.05460667  0.78259641    -0.66600
O761        O  0.04375805  0.92778293  0.80157471    -0.85900
C762        C  0.00516904  0.05743610  0.79207496     0.86400
C763        C  0.00138368  0.06262652  0.68902723     1.07900
H764        H  0.03671671  0.99184231  0.79521845     0.39700
O765        O  0.03170692  0.98313968  0.77056770    -1.08500
O766        O  0.99115699  0.94395687  0.73037224    -0.65200
Ni767      Ni  0.99005089  0.97254636  0.77203555     1.26300
O768        O  0.02623389  0.04347909  0.77523936    -0.65400
O769        O  0.99539262  0.94095261  0.80810444    -0.77700
C770        C  0.92930824  0.98448558  0.78639074     0.85700
O771        O  0.94767766  0.96479273  0.77523635    -0.64900
Ni772      Ni  0.06092443  0.95295080  0.76187835     1.27400
Ni773      Ni  0.02792695  0.01455733  0.73384641     1.26100
H774        H  0.98138300  0.99510068  0.71038474     0.40300
O775        O  0.03582137  0.56923088  0.77820625    -0.79700
O776        O  0.03092161  0.43497022  0.72783571    -0.64400
O777        O  0.02215977  0.51961382  0.73020200    -1.11000
C778        C  0.93731962  0.49719725  0.80843326     1.07200
O779        O  0.98228817  0.42666252  0.71799112    -0.77600
O780        O  0.94566913  0.47319586  0.71390917    -0.65200
Ni781      Ni  0.05580016  0.54578091  0.73913115     1.34900
C782        C  0.94625596  0.50066611  0.70490993     0.85900
O783        O  0.06011488  0.47936911  0.69329918    -0.78100
O784        O  0.07929319  0.52567848  0.70041707    -0.88400
C785        C  0.00961379  0.41919146  0.71397871     0.85500
O786        O  0.07402504  0.52309626  0.77903670    -0.66600
O787        O  0.93708752  0.47172025  0.79190215    -0.85900
C788        C  0.07299497  0.49575479  0.78884540     0.86400
C789        C  0.07928868  0.49975251  0.68493155     1.07900
H790        H  0.00303132  0.47105756  0.79022541     0.39700
O791        O  0.99545445  0.47668213  0.76539808    -1.08500
O792        O  0.96144863  0.52021829  0.72367717    -0.65200
Ni793      Ni  0.98978948  0.51894726  0.76614881     1.26300
O794        O  0.05631733  0.47645146  0.77180069    -0.65400
O795        O  0.95747993  0.51711292  0.80224903    -0.77700
C796        C  0.00851028  0.57696060  0.78240519     0.85700
O797        O  0.98715729  0.56142792  0.76815875    -0.64900
Ni798      Ni  0.96168949  0.45085694  0.75535547     1.27400
Ni799      Ni  0.02792311  0.47744190  0.72951754     1.26100
H800        H  0.01433558  0.52508008  0.70511384     0.40300
C801        C  0.82981914  0.52266962  0.60356371    -0.27000
C802        C  0.85792706  0.53421852  0.59231899     0.06600
C803        C  0.85991298  0.55219700  0.55925112     0.26200
C804        C  0.83388363  0.55857812  0.53798484    -0.11500
C805        C  0.80568405  0.54726736  0.54971060    -0.25400
C806        C  0.80392922  0.52923712  0.58270938     0.37000
C807        C  0.88461172  0.52682704  0.61575029     0.06600
F808        F  0.88694035  0.56320902  0.54739580    -0.19200
H809        H  0.83564493  0.57266777  0.51275721     0.16500
F810        F  0.77713668  0.51762088  0.59455362    -0.22900
H811        H  0.82791663  0.50871120  0.62891958     0.18300
C812        C  0.89975640  0.54875561  0.63766346     0.26200
C813        C  0.92097505  0.54037641  0.66544371    -0.11400
C814        C  0.92736110  0.51000993  0.67173709    -0.25500
C815        C  0.91352378  0.48836847  0.64765131     0.37200
C816        C  0.89229188  0.49679261  0.62028081    -0.27100
F817        F  0.89253071  0.57800241  0.63405509    -0.19200
H818        H  0.93130158  0.55755340  0.68323729     0.16500
F819        F  0.91958417  0.45882933  0.65127369    -0.22900
H820        H  0.88089773  0.47964278  0.60347207     0.18300
C821        C  0.88825922  0.53702578  0.88142942    -0.27000
C822        C  0.86355750  0.51730649  0.88414867     0.06600
C823        C  0.86329113  0.49088282  0.86243383     0.26200
C824        C  0.88743897  0.48438806  0.83828124    -0.11500
C825        C  0.91241695  0.50404104  0.83543580    -0.25400
C826        C  0.91257708  0.53048454  0.85759530     0.37000
C827        C  0.83838531  0.52445968  0.91007640     0.06600
F828        F  0.83938016  0.47169452  0.86397435    -0.19200
H829        H  0.88636262  0.46402891  0.82146636     0.16500
F830        F  0.93623345  0.54999024  0.85664626    -0.22900
H831        H  0.88884621  0.55741432  0.89824473     0.18300
C832        C  0.83187716  0.50630834  0.94203908     0.26200
C833        C  0.80943852  0.51449488  0.96794408    -0.11400
C834        C  0.79324734  0.54086661  0.96235637    -0.25500
C835        C  0.79925423  0.55858002  0.92983140     0.37200
C836        C  0.82174956  0.55046454  0.90401680    -0.27100
F837        F  0.84810541  0.48140621  0.94903192    -0.19200
H838        H  0.80504969  0.50061918  0.49285198     0.16500
F839        F  0.78434874  0.58446609  0.92409018    -0.22900
H840        H  0.82657286  0.56472550  0.87956795     0.18300
C841        C  0.68758287  0.57137936  0.90430784    -0.27000
C842        C  0.68366029  0.54225548  0.88961410     0.06600
C843        C  0.70212637  0.51938763  0.90410123     0.26200
C844        C  0.72306380  0.52548305  0.93334703    -0.11500
C845        C  0.72557458  0.55420148  0.94926979    -0.25400
C846        C  0.70791022  0.57720815  0.93423019     0.37000
C847        C  0.65944439  0.53567273  0.86076956     0.06600
F848        F  0.69868927  0.49073059  0.89185853    -0.19200
H849        H  0.73607294  0.50733624  0.94513459     0.16500
F850        F  0.70996874  0.60525782  0.44900372    -0.22900
H851        H  0.67442888  0.58963483  0.89314344     0.18300
C852        C  0.63045599  0.54775664  0.86480891     0.26200
C853        C  0.60758104  0.54045728  0.83857795    -0.11400
C854        C  0.61267768  0.52031709  0.80841531    -0.25500
C855        C  0.64159789  0.50849468  0.80398150     0.37200
C856        C  0.66478040  0.51647179  0.82954210    -0.27100
F857        F  0.62364673  0.56541748  0.89520113    -0.19200
H858        H  0.58537617  0.54951616  0.84294586     0.16500
F859        F  0.64750633  0.48934429  0.77480877    -0.22900
H860        H  0.68693568  0.50740179  0.82500037     0.18300
C861        C  0.13216441  0.49766714  0.86800820    -0.27000
C862        C  0.13683736  0.46717395  0.87465167     0.06600
C863        C  0.11810291  0.44605614  0.85608684     0.26200
C864        C  0.09648393  0.45543179  0.82932657    -0.11500
C865        C  0.09305020  0.48601836  0.82081908    -0.25400
C866        C  0.11056715  0.50710079  0.84163563     0.37000
C867        C  0.16310902  0.45802622  0.89811688     0.06600
F868        F  0.12188007  0.41636185  0.86209742    -0.19200
H869        H  0.08324463  0.43863858  0.81421362     0.16500
F870        F  0.10764187  0.53693977  0.83585717    -0.22900
H871        H  0.14601999  0.51430085  0.88255296     0.18300
C872        C  0.19211168  0.46808010  0.88784920     0.26200
C873        C  0.21700332  0.46068225  0.91026795    -0.11400
C874        C  0.21358083  0.44336310  0.94360450    -0.25500
C875        C  0.18470284  0.43265058  0.95358091     0.37200
C876        C  0.15964583  0.43993439  0.93089638    -0.27100
F877        F  0.19640297  0.48481212  0.85571732    -0.19200
H878        H  0.23908225  0.46881724  0.90179268     0.16500
F879        F  0.18083388  0.41464244  0.48461515    -0.22900
H880        H  0.13752883  0.43176942  0.93911748     0.18300
C881        C  0.18480790  0.48810317  0.54965685    -0.27000
C882        C  0.17711751  0.47048325  0.58173265     0.06600
C883        C  0.19357196  0.44443257  0.58917402     0.26200
C884        C  0.21638751  0.43571080  0.56423111    -0.11500
C885        C  0.22325897  0.45269916  0.53148660    -0.25400
C886        C  0.20779125  0.47937783  0.52478830     0.37000
C887        C  0.15143703  0.47868397  0.60668686     0.06600
F888        F  0.18760331  0.42740482  0.62060889    -0.19200
H889        H  0.22827889  0.41520363  0.06986255     0.16500
F890        F  0.21491089  0.49689446  0.49421739    -0.22900
H891        H  0.17254413  0.50827760  0.54337219     0.18300
C892        C  0.14898626  0.50759688  0.62211508     0.26200
C893        C  0.12518906  0.51446379  0.64676352    -0.11400
C894        C  0.10323899  0.49272725  0.65648931    -0.25500
C895        C  0.10536265  0.46397932  0.63997445     0.37200
C896        C  0.12917442  0.45719799  0.61546259    -0.27100
F897        F  0.17018097  0.52892100  0.61450895    -0.19200
H898        H  0.12430883  0.53676157  0.65878711     0.16500
F899        F  0.08477421  0.44210671  0.64776443    -0.22900
H900        H  0.13026100  0.43494592  0.60329289     0.18300
C901        C  0.32192093  0.42252687  0.60143545    -0.27000
C902        C  0.32877865  0.45231115  0.61193927     0.06600
C903        C  0.31498406  0.47554844  0.59110904     0.26200
C904        C  0.29528669  0.46900619  0.56064915    -0.11500
C905        C  0.28973533  0.43937628  0.54934337    -0.25400
C906        C  0.30304582  0.41611971  0.57009036     0.37000
C907        C  0.35246748  0.45882346  0.64166837     0.06600
F908        F  0.32225178  0.50462616  0.59797899    -0.19200
H909        H  0.28580007  0.48721295  0.54427855     0.16500
F910        F  0.29829075  0.38722630  0.55947648    -0.22900
H911        H  0.33190837  0.40410434  0.61683430     0.18300
C912        C  0.34987539  0.48244380  0.66828600     0.26200
C913        C  0.37419505  0.49051346  0.69213811    -0.11400
C914        C  0.40118438  0.47446910  0.69132172    -0.25500
C915        C  0.40268200  0.44920365  0.66722136     0.37200
C916        C  0.37890758  0.44191194  0.64234378    -0.27100
F917        F  0.32382502  0.49767562  0.67153219    -0.19200
H918        H  0.37195108  0.50953100  0.71112302     0.16500
F919        F  0.42762532  0.43213882  0.66631963    -0.22900
H920        H  0.38173184  0.42347720  0.62257815     0.18300
C921        C  0.44637473  0.17218270  0.58531310    -0.27000
C922        C  0.47218571  0.17494806  0.60839306     0.06600
C923        C  0.49182160  0.19953233  0.60219190     0.26200
C924        C  0.48671142  0.21957626  0.57185212    -0.11500
C925        C  0.46173317  0.21575260  0.54738377    -0.25400
C926        C  0.44104235  0.19235140  0.55543935     0.37000
C927        C  0.47978283  0.15061392  0.63602692     0.06600
F928        F  0.51646034  0.20367848  0.62478733    -0.19200
H929        H  0.50330035  0.23695990  0.56629986     0.16500
F930        F  0.41608707  0.18815194  0.53341503    -0.22900
H931        H  0.43094776  0.15346182  0.58914734     0.18300
C932        C  0.45810331  0.13819240  0.66110428     0.26200
C933        C  0.46512223  0.11362109  0.68442022    -0.11400
C934        C  0.49389135  0.10091310  0.68339765    -0.25500
C935        C  0.51556516  0.11350623  0.65838447     0.37200
C936        C  0.50850879  0.13796870  0.63513460    -0.27100
F937        F  0.43014671  0.14987352  0.66322658    -0.19200
H938        H  0.44795043  0.10448176  0.70325729     0.16500
F939        F  0.54332213  0.10152016  0.65508496    -0.22900
H940        H  0.52535435  0.14643719  0.61534267     0.18300
C941        C  0.49911174  0.31413630  0.88655610    -0.27000
C942        C  0.48560677  0.34172042  0.89370609     0.06200
C943        C  0.46643198  0.34449748  0.92559263     0.26200
C944        C  0.46080864  0.31983840  0.94969389    -0.11500
C945        C  0.47390841  0.29209219  0.94188431    -0.25400
C946        C  0.49322487  0.28953589  0.91017843     0.37000
C947        C  0.49200003  0.36720376  0.86753712     0.06600
F948        F  0.45335931  0.37102975  0.93346403    -0.19200
H949        H  0.44562689  0.32216069  0.97376142     0.16500
F950        F  0.50646055  0.26311678  0.90205598    -0.22900
H951        H  0.51393296  0.31154351  0.86215582     0.18300
C952        C  0.52174013  0.37711237  0.86185332     0.26200
C953        C  0.52825395  0.39938696  0.83488404    -0.11400
C954        C  0.50534493  0.41216498  0.81243636    -0.25500
C955        C  0.47536666  0.40241154  0.81854619     0.37200
C956        C  0.46885445  0.38026183  0.84603577    -0.27100
F957        F  0.54460495  0.36503719  0.88230471    -0.19200
H958        H  0.55153203  0.40623342  0.83119210     0.16500
F959        F  0.45240658  0.41360726  0.79744921    -0.22900
H960        H  0.44581302  0.37259589  0.84969724     0.18300
C961        C  0.48497185  0.38413530  0.60002541    -0.27000
C962        C  0.50244636  0.35835443  0.60221908     0.06600
C963        C  0.52733664  0.35807655  0.62717841     0.26200
C964        C  0.53355637  0.38266428  0.65107573    -0.11500
C965        C  0.51536405  0.40819120  0.65004522    -0.25400
C966        C  0.49157024  0.40898104  0.62312851     0.37000
C967        C  0.49445809  0.33194930  0.57832251     0.06600
F968        F  0.54491815  0.33357716  0.62947986    -0.19200
H969        H  0.55213611  0.38133493  0.67116008     0.16500
F970        F  0.47468252  0.43379035  0.61885988    -0.22900
H971        H  0.46618419  0.38503689  0.58018289     0.18300
C972        C  0.46650239  0.31718920  0.58277484     0.26200
C973        C  0.45856327  0.29309265  0.55891235    -0.11400
C974        C  0.47812076  0.28372468  0.52989999    -0.25500
C975        C  0.50627284  0.29812407  0.52590881     0.37200
C976        C  0.51440610  0.32192620  0.55009489    -0.27100
F977        F  0.44688942  0.32618256  0.61012484    -0.19200
H978        H  0.43677637  0.28226843  0.56219744     0.16500
F979        F  0.52576245  0.28922139  0.99839968    -0.22900
H980        H  0.53600036  0.33303496  0.54622153     0.18300
C981        C  0.54604096  0.86049433  0.84108448    -0.27000
C982        C  0.52223120  0.84175800  0.85308129     0.06600
C983        C  0.49349534  0.84593754  0.83719530     0.26200
C984        C  0.48834880  0.86943149  0.81162242    -0.11500
C985        C  0.51168949  0.88940182  0.80119848    -0.25400
C986        C  0.54093630  0.88410982  0.81541665     0.37000
C987        C  0.52637648  0.82061549  0.88558098     0.06600
F988        F  0.47011219  0.82777498  0.84738105    -0.19200
H989        H  0.46570837  0.87251327  0.80091375     0.16500
F990        F  0.56433263  0.90258538  0.80627841    -0.22900
H991        H  0.56831458  0.85784726  0.85320061     0.18300
C992        C  0.54919699  0.79905964  0.88579350     0.26200
C993        C  0.55327085  0.78064698  0.91808709    -0.11400
C994        C  0.53503839  0.78395430  0.95067242    -0.25500
C995        C  0.51208271  0.80516177  0.95012920     0.37200
C996        C  0.50775974  0.82313859  0.91790402    -0.27100
F997        F  0.56752813  0.79592725  0.85497665    -0.19200
H998        H  0.57125655  0.76456419  0.91819956     0.16500
F999        F  0.49397867  0.80872021  0.98109655    -0.22900
H1000       H  0.49029311  0.83977073  0.91863890     0.18300
C1001       C  0.51294005  0.65837704  0.56609948    -0.27000
C1002       C  0.53245049  0.65214138  0.59687108     0.06600
C1003       C  0.55736762  0.67137262  0.60313324     0.26200
C1004       C  0.56198486  0.69650937  0.57974357    -0.11500
C1005       C  0.54177014  0.70332154  0.54999510    -0.25400
C1006       C  0.51697302  0.68404172  0.54364132     0.37000
C1007       C  0.52515357  0.62725406  0.62406597     0.06600
F1008       F  0.57624282  0.66701931  0.63326755    -0.19200
H1009       H  0.58087320  0.71136321  0.58579245     0.16500
F1010       F  0.49507459  0.69118836  0.01825415    -0.22900
H1011       H  0.49366569  0.64396912  0.56036164     0.18300
C1012       C  0.49554995  0.62307779  0.63757833     0.26200
C1013       C  0.48882378  0.60060023  0.66412483    -0.11400
C1014       C  0.51136719  0.58196677  0.67866698    -0.25500
C1015       C  0.54098663  0.58587928  0.66509477     0.37200
C1016       C  0.54767921  0.60814302  0.63782853    -0.27100
F1017       F  0.47318224  0.64159827  0.62657456    -0.19200
H1018       H  0.46588991  0.59849473  0.67432745     0.16500
F1019       F  0.56341325  0.56813262  0.67787106    -0.22900
H1020       H  0.57055115  0.61047096  0.62751603     0.18300
C1021       C  0.55206370  0.67145096  0.92765097    -0.27000
C1022       C  0.52374618  0.66844434  0.90970993     0.06600
C1023       C  0.50152640  0.68972283  0.91792694     0.26200
C1024       C  0.50772096  0.71337423  0.94319337    -0.11500
C1025       C  0.53551057  0.71540165  0.96215682    -0.25400
C1026       C  0.55779123  0.69451716  0.95393094     0.37000
C1027       C  0.51727524  0.64236837  0.88409338     0.06600
F1028       F  0.47326205  0.68671071  0.90348763    -0.19200
H1029       H  0.49025158  0.72917805  0.44981573     0.16500
F1030       F  0.58503238  0.69649964  0.97150056    -0.22900
H1031       H  0.56969295  0.65566809  0.92165638     0.18300
C1032       C  0.50210289  0.64572493  0.84878414     0.26200
C1033       C  0.49548573  0.62074895  0.82581547    -0.11400
C1034       C  0.50464875  0.59203597  0.83683802    -0.25500
C1035       C  0.52054848  0.58878207  0.87159869     0.37200
C1036       C  0.52646685  0.61361981  0.89502990    -0.27100
F1037       F  0.49468256  0.67324025  0.83566489    -0.19200
H1038       H  0.48400185  0.62402527  0.79868080     0.16500
F1039       F  0.52999323  0.56152547  0.88332297    -0.22900
H1040       H  0.53810202  0.61028975  0.92204113     0.18300
C1041       C  0.14622400  0.04902113  0.66275736    -0.27000
C1042       C  0.15715252  0.02802298  0.63617890     0.06600
C1043       C  0.14503769  0.99870186  0.63724497     0.26200
C1044       C  0.12313011  0.99072081  0.66421372    -0.11500
C1045       C  0.11177958  0.01177370  0.69020202    -0.25400
C1046       C  0.12345959  0.04121457  0.68900881     0.37000
C1047       C  0.18018881  0.03669841  0.60659951     0.06600
F1048       F  0.15322912  0.97786535  0.61107694    -0.19200
H1049       H  0.11425216  0.96804041  0.66374523     0.16500
F1050       F  0.11302616  0.06247085  0.71318871    -0.22900
H1051       H  0.15527827  0.07160805  0.66331480     0.18300
C1052       C  0.17865219  0.06408061  0.58660502     0.26200
C1053       C  0.19830211  0.07024928  0.55610265    -0.11400
C1054       C  0.21955350  0.04922181  0.54413106    -0.25500
C1055       C  0.22165447  0.02223599  0.56464996     0.37200
C1056       C  0.20279834  0.01652605  0.59606847    -0.27100
F1057       F  0.15694661  0.08415563  0.59463692    -0.19200
H1058       H  0.19595103  0.09108256  0.04057006     0.16500
F1059       F  0.23998851  0.00019244  0.55257640    -0.22900
H1060       H  0.20519783  0.99557814  0.61126527     0.18300
C1061       C  0.31740855  0.02206278  0.88017121    -0.27000
C1062       C  0.34620140  0.03153329  0.89191567     0.06600
C1063       C  0.34938934  0.04777573  0.92629549     0.26200
C1064       C  0.32403533  0.05414121  0.94867969    -0.11500
C1065       C  0.29519493  0.04441611  0.93702800    -0.25400
C1066       C  0.29212953  0.02855585  0.90226332     0.37000
C1067       C  0.37254944  0.02363819  0.86814846     0.06600
F1068       F  0.37702854  0.05691519  0.93853211    -0.19200
H1069       H  0.32691637  0.06679420  0.97498414     0.16500
F1070       F  0.26471133  0.01866901  0.89004613    -0.22900
H1071       H  0.31454255  0.00955126  0.85372444     0.18300
C1072       C  0.38014000  0.99355894  0.86327360     0.26200
C1073       C  0.40251956  0.98559312  0.83723477    -0.11400
C1074       C  0.41771301  0.00739235  0.81500579    -0.25500
C1075       C  0.41093210  0.03777121  0.82125651     0.37200
C1076       C  0.38857010  0.04570962  0.84768128    -0.27100
F1077       F  0.36536733  0.97177562  0.88317020    -0.19200
H1078       H  0.40727858  0.96207561  0.83370726     0.16500
F1079       F  0.42487035  0.05975539  0.80080575    -0.22900
H1080       H  0.38289248  0.06903448  0.85104082     0.18300
C1081       C  0.38206770  0.03485773  0.61009984    -0.27000
C1082       C  0.36006198  0.01314803  0.60109905     0.06600
C1083       C  0.36264157  0.98433728  0.61690182     0.26200
C1084       C  0.38632157  0.97777937  0.64205939    -0.11500
C1085       C  0.40809156  0.99969734  0.65180871    -0.25400
C1086       C  0.40579996  0.02836165  0.63503721     0.37000
C1087       C  0.33448340  0.02092019  0.57551558     0.06600
F1088       F  0.34171654  0.96277903  0.60904696    -0.19200
H1089       H  0.38735795  0.95554820  0.65427740     0.16500
F1090       F  0.42612585  0.05045664  0.64304867    -0.22900
H1091       H  0.38087172  0.05704071  0.59773165     0.18300
C1092       C  0.31751498  0.04674752  0.58230466     0.26200
C1093       C  0.29417279  0.05448490  0.55735166    -0.11400
C1094       C  0.28731363  0.03672723  0.52522511    -0.25500
C1095       C  0.30365067  0.01049343  0.51894645     0.37200
C1096       C  0.32711778  0.00279105  0.54377397    -0.27100
F1097       F  0.32331187  0.06435906  0.61328918    -0.19200
H1098       H  0.28167515  0.07466447  0.56266832     0.16500
F1099       F  0.29675238  0.99228366  0.98892094    -0.22900
H1100       H  0.33985156  0.98285537  0.53787693     0.18300
C1101       C  0.81293545  0.98053711  0.90281621    -0.27000
C1102       C  0.82537160  0.95693340  0.88162672     0.06600
C1103       C  0.81508913  0.92754184  0.88902108     0.26200
C1104       C  0.79484724  0.92178002  0.91901941    -0.11500
C1105       C  0.78381860  0.94522531  0.94143158    -0.25400
C1106       C  0.79221564  0.97477162  0.93232746     0.37000
C1107       C  0.85098793  0.96271923  0.85480456     0.06600
F1108       F  0.82531197  0.90428934  0.86793647    -0.19200
H1109       H  0.78861851  0.89886583  0.92572630     0.16500
F1110       F  0.78226217  0.99782483  0.95399977    -0.22900
H1111       H  0.82056046  0.00333844  0.89804999     0.18300
C1112       C  0.85035985  0.98615334  0.82780986     0.26200
C1113       C  0.87562063  0.99254933  0.80501918    -0.11400
C1114       C  0.90194334  0.97561150  0.80829768    -0.25500
C1115       C  0.90244544  0.95195148  0.83489530     0.37200
C1116       C  0.87728144  0.94568753  0.85786211    -0.27100
F1117       F  0.82532897  0.00284390  0.82335993    -0.19200
H1118       H  0.87467405  0.01096399  0.78484870     0.16500
F1119       F  0.92784225  0.93603981  0.84043158    -0.22900
H1120       H  0.87875270  0.92807354  0.87911526     0.18300
C1121       C  0.65779832  0.93971655  0.56720083    -0.27000
C1122       C  0.66104499  0.96001812  0.59784473     0.06600
C1123       C  0.68945793  0.97326880  0.60476245     0.26200
C1124       C  0.71387390  0.96670170  0.58117651    -0.11500
C1125       C  0.71048436  0.94714488  0.54992642    -0.25400
C1126       C  0.68228656  0.93343526  0.54320486     0.37000
C1127       C  0.63494057  0.96789702  0.62232421     0.06600
F1128       F  0.69371747  0.99229440  0.63474508    -0.19200
H1129       H  0.73552803  0.97716199  0.58710417     0.16500
F1130       F  0.67863212  0.91351297  0.51410580    -0.22900
H1131       H  0.63619416  0.92907500  0.56157354     0.18300
C1132       C  0.62704612  0.99795709  0.62703383     0.26200
C1133       C  0.60442869  0.00582636  0.65272919    -0.11400
C1134       C  0.58898110  0.98398974  0.67453934    -0.25500
C1135       C  0.59593642  0.95364163  0.66846834     0.37200
C1136       C  0.61867269  0.94577018  0.64249294    -0.27100
F1137       F  0.64146541  0.01985884  0.60694265    -0.19200
H1138       H  0.59947045  0.02932003  0.65606013     0.16500
F1139       F  0.58170946  0.93163814  0.68857661    -0.22900
H1140       H  0.62433437  0.92244167  0.63914886     0.18300
C1141       C  0.64516850  0.00591984  0.86556323    -0.27000
C1142       C  0.64364495  0.97983304  0.88780478     0.06600
C1143       C  0.61813388  0.96107359  0.88498405     0.26200
C1144       C  0.59475732  0.96810273  0.85971287    -0.11500
C1145       C  0.59638883  0.99392763  0.83659430    -0.25400
C1146       C  0.62196135  0.01288623  0.83996640     0.37000
C1147       C  0.66916763  0.97174377  0.91289396     0.06600
F1148       F  0.61583917  0.93596276  0.90676886    -0.19200
H1149       H  0.57546185  0.95309134  0.85802217     0.16500
F1150       F  0.62520055  0.03760551  0.81764651    -0.22900
H1151       H  0.66481569  0.02048516  0.86724865     0.18300
C1152       C  0.68524081  0.94546682  0.90599964     0.26200
C1153       C  0.70898589  0.93757329  0.93016131    -0.11400
C1154       C  0.71690080  0.95558518  0.96167402    -0.25500
C1155       C  0.70134917  0.98225029  0.96807850     0.37200
C1156       C  0.67770174  0.99030982  0.94369860    -0.27100
F1157       F  0.67807993  0.92760281  0.87570334    -0.19200
H1158       H  0.72088376  0.91702854  0.92486288     0.16500
F1159       F  0.70924753  0.00053261  0.49763996    -0.22900
H1160       H  0.66575046  0.01081246  0.94911825     0.18300
C1161       C  0.01634077  0.17749466  0.89532052    -0.27000
C1162       C  0.03004193  0.15021387  0.90387810     0.06600
C1163       C  0.04945664  0.14849669  0.93578453     0.26200
C1164       C  0.05518645  0.17389640  0.95843999    -0.11500
C1165       C  0.04180357  0.20124627  0.94926769    -0.25400
C1166       C  0.02216563  0.20276948  0.91768921     0.37000
C1167       C  0.02413948  0.12410615  0.87864875     0.06600
F1168       F  0.06266819  0.12229067  0.94507087    -0.19200
H1169       H  0.07049833  0.17240184  0.98259985     0.16500
F1170       F  0.00855593  0.22880930  0.90850470    -0.22900
H1171       H  0.00146915  0.17935427  0.87075022     0.18300
C1172       C  0.99445874  0.11527987  0.87008222     0.26200
C1173       C  0.98874526  0.09288471  0.84308066    -0.11400
C1174       C  0.01243609  0.07883838  0.82361250    -0.25500
C1175       C  0.04229014  0.08700565  0.83323273     0.37200
C1176       C  0.04797808  0.10941718  0.86059102    -0.27100
F1177       F  0.97088732  0.12865437  0.88748420    -0.19200
H1178       H  0.96550936  0.08707826  0.83682446     0.16500
F1179       F  0.06597338  0.07425170  0.81535703    -0.22900
H1180       H  0.07102305  0.11613707  0.86658886     0.18300
C1181       C  0.04946693  0.18153849  0.59334178    -0.27000
C1182       C  0.02421732  0.16290386  0.58696384     0.06600
C1183       C  0.00503802  0.16902813  0.55580791     0.26200
C1184       C  0.01152952  0.19287492  0.53106833    -0.11500
C1185       C  0.03724380  0.21093696  0.53681656    -0.25400
C1186       C  0.05597893  0.20533665  0.56848834     0.37000
C1187       C  0.01825951  0.13690564  0.61245251     0.06600
F1188       F  0.98071387  0.15123398  0.54838257    -0.19200
H1189       H  0.99680379  0.19697959  0.00687199     0.16500
F1190       F  0.08125460  0.22208705  0.57437478    -0.22900
H1191       H  0.06434312  0.17743988  0.61741149     0.18300
C1192       C  0.04084208  0.11604423  0.62022972     0.26200
C1193       C  0.03499265  0.09168385  0.64439550    -0.11400
C1194       C  0.00653662  0.08758599  0.66145219    -0.25500
C1195       C  0.98387698  0.10847810  0.65331769     0.37200
C1196       C  0.98979076  0.13278474  0.62909219    -0.27100
F1197       F  0.06846524  0.11894405  0.60399309    -0.19200
H1198       H  0.05295716  0.07614543  0.64996712     0.16500
F1199       F  0.95609380  0.10588803  0.66916799    -0.22900
H1200       H  0.97216364  0.14874932  0.62377225     0.18300
C1201       C  0.01646707  0.29793433  0.60294666    -0.27000
C1202       C  0.03665270  0.32173429  0.61048689     0.06600
C1203       C  0.06328296  0.32396569  0.58894502     0.26200
C1204       C  0.06917230  0.30321291  0.56004911    -0.11500
C1205       C  0.04850129  0.28008108  0.55135528    -0.25400
C1206       C  0.02207634  0.27745938  0.57342384     0.37000
C1207       C  0.02908426  0.34522957  0.63895172     0.06600
F1208       F  0.08270970  0.34733887  0.59405856    -0.19200
H1209       H  0.08946059  0.30603860  0.54318027     0.16500
F1210       F  0.00050758  0.25679340  0.56472583    -0.22900
H1211       H  0.99577423  0.29579110  0.61913911     0.18300
C1212       C  0.00109588  0.35944632  0.63752323     0.26200
C1213       C  0.99477848  0.38272808  0.66286466    -0.11400
C1214       C  0.01628400  0.39272617  0.68987370    -0.25500
C1215       C  0.04415104  0.37822410  0.69170984     0.37200
C1216       C  0.05035308  0.35464023  0.66656469    -0.27100
F1217       F  0.98035161  0.35187087  0.61038550    -0.19200
H1218       H  0.97328122  0.39367124  0.66035211     0.16500
F1219       F  0.06537275  0.38672472  0.71776117    -0.22900
H1220       H  0.07194629  0.34381828  0.66845703     0.18300
C1221       C  0.96847210  0.88718761  0.63555729    -0.27000
C1222       C  0.98805599  0.86357364  0.62753938     0.06600
C1223       C  0.01586546  0.86263648  0.64691675     0.26200
C1224       C  0.02348417  0.88440612  0.67411272    -0.11500
C1225       C  0.00356728  0.90752335  0.68309333    -0.25400
C1226       C  0.97601688  0.90891166  0.66312693     0.37000
C1227       C  0.97915171  0.83936337  0.60022860     0.06600
F1228       F  0.03524069  0.83992496  0.64091440    -0.19200
H1229       H  0.04478854  0.88256492  0.68904253     0.16500
F1230       F  0.95644933  0.93129659  0.66996423    -0.22900
H1231       H  0.94720692  0.88877754  0.62049775     0.18300
C1232       C  0.95082981  0.82496370  0.60289651     0.26200
C1233       C  0.94394479  0.80022171  0.57965899    -0.11400
C1234       C  0.96505280  0.78937199  0.55337832    -0.25500
C1235       C  0.99315031  0.80401868  0.55027946     0.37200
C1236       C  0.99985859  0.82899836  0.57302262    -0.27100
F1237       F  0.93043337  0.83368918  0.62943491    -0.19200
H1238       H  0.92235512  0.78897352  0.58290699     0.16500
F1239       F  0.01499459  0.79299171  0.52737793    -0.22900
H1240       H  0.02174074  0.83971753  0.57018651     0.18300
C1241       C  0.02727753  0.86186208  0.88935501    -0.27000
C1242       C  0.99839868  0.84854180  0.88882745     0.06600
C1243       C  0.97658999  0.85990094  0.86362441     0.26200
C1244       C  0.98315413  0.88465666  0.84069242    -0.11500
C1245       C  0.01170760  0.89846769  0.84170754    -0.25400
C1246       C  0.03404157  0.88646654  0.86570600     0.37000
C1247       C  0.99032476  0.82389194  0.91567193     0.06600
F1248       F  0.94894807  0.84677085  0.86069927    -0.19200
H1249       H  0.96591372  0.89269925  0.82139304     0.16500
F1250       F  0.06204036  0.89893827  0.86710152    -0.22900
H1251       H  0.04439715  0.85364629  0.90869772     0.18300
C1252       C  0.00862228  0.79866531  0.92025540     0.26200
C1253       C  0.00005409  0.77568301  0.94553071    -0.11400
C1254       C  0.97335679  0.77767777  0.96676327    -0.25500
C1255       C  0.95504368  0.80271365  0.96192754     0.37200
C1256       C  0.96356616  0.82560228  0.93689362    -0.27100
F1257       F  0.03453100  0.79606903  0.90007968    -0.19200
H1258       H  0.01457351  0.75667661  0.94931962     0.16500
F1259       F  0.92883305  0.80498604  0.98154803    -0.22900
H1260       H  0.94928711  0.84492773  0.93435720     0.18300
C1261       C  0.99731356  0.66593832  0.92843340    -0.27000
C1262       C  0.98420559  0.67099178  0.89232915     0.06600
C1263       C  0.96464784  0.69529905  0.88791049     0.26200
C1264       C  0.95825698  0.71391424  0.91931898    -0.11500
C1265       C  0.97089846  0.70820929  0.95557140    -0.25400
C1266       C  0.99068161  0.68418496  0.95971399     0.37000
C1267       C  0.99029200  0.64979113  0.86041303     0.06600
F1268       F  0.95175405  0.70097819  0.85333432    -0.19200
H1269       H  0.94280833  0.73220527  0.91563384     0.16500
F1270       F  0.00354356  0.67823890  0.99425493    -0.22900
H1271       H  0.01216902  0.64723067  0.93269884     0.18300
C1272       C  0.01997542  0.64223351  0.85103490     0.26200
C1273       C  0.02559064  0.61945787  0.82456404    -0.11400
C1274       C  0.00179881  0.60344467  0.80690600    -0.25500
C1275       C  0.97201816  0.61185354  0.81526613     0.37200
C1276       C  0.96644929  0.63481059  0.84168344    -0.27100
F1277       F  0.04362731  0.65655717  0.86804400    -0.19200
H1278       H  0.04874740  0.61381509  0.81876249     0.16500
F1279       F  0.94817499  0.59730622  0.79906417    -0.22900
H1280       H  0.94339782  0.64002309  0.84875872     0.18300
loop_ 
_geom_bond_atom_site_label_1 
_geom_bond_atom_site_label_2 
_geom_bond_distance 
_geom_bond_site_symmetry_2 
_ccdc_geom_bond_type 
N1            C2   1.357       .  A
N1          C645   1.359       .  A
N1          C614   1.440       .  S
C2          C625   1.483       .  S
C2          C643   1.384       .  A
C3            C4   1.377       .  A
C3          C642   1.384   1_554  A
C3            H6   1.082       .  S
C4            C5   1.381       .  A
C4            H7   1.082       .  S
C5          N641   1.359   1_554  A
C5          C594   1.484       .  S
N8            C9   1.361       .  A
N8          C652   1.358   1_554  A
N8          C545   1.441       .  S
C9          C565   1.488       .  S
C9          C650   1.385   1_554  A
C10          C11   1.372       .  A
C10         C649   1.385       .  A
C10          H13   1.082       .  S
C11          C12   1.380       .  A
C11          H14   1.082       .  S
C12         N648   1.358       .  A
C12         C525   1.478       .  S
N15          C16   1.357       .  A
N15         C659   1.358       .  A
N15         C514   1.438       .  S
C16         C465   1.481       .  S
C16         C657   1.382       .  A
C17          C18   1.378       .  A
C17         C656   1.382   1_554  A
C17          H20   1.082       .  S
C18          C19   1.383       .  A
C18          H21   1.082       .  S
C19         N655   1.358   1_554  A
C19         C485   1.483       .  S
N22          C23   1.362   1_556  A
N22         C666   1.361       .  A
N22         C454   1.442   1_556  S
C23         C414   1.492       .  S
C23         C664   1.384   1_554  A
C24          C25   1.375       .  A
C24         C663   1.384       .  A
C24          H27   1.082       .  S
C25          C26   1.383       .  A
C25          H28   1.082       .  S
C26         N662   1.361       .  A
C26         C425   1.488       .  S
N29          C30   1.355       .  A
N29         C673   1.360       .  A
N29         C385   1.437       .  S
C30         C354   1.480       .  S
C30         C671   1.383       .  A
C31          C32   1.376       .  A
C31         C670   1.383   1_554  A
C31          H34   1.082       .  S
C32          C33   1.384       .  A
C32          H35   1.082       .  S
C33         N669   1.360   1_554  A
C33         C365   1.488       .  S
N36          C37   1.364       .  A
N36         C680   1.360   1_554  A
N36         C334   1.441       .  S
C37         C285   1.495       .  S
C37         C678   1.387   1_554  A
C38          C39   1.372       .  A
C38         C677   1.387       .  A
C38          H41   1.082       .  S
C39          C40   1.379       .  A
C39          H42   1.082       .  S
C40         N676   1.360       .  A
C40         C305   1.483       .  S
N43          C44   1.357       .  A
N43         C687   1.359   1_554  A
N43         C245   1.439       .  S
C44         C265   1.481       .  S
C44         C685   1.382   1_554  A
C45          C46   1.379       .  A
C45         C684   1.382       .  A
C45          H48   1.082       .  S
C46          C47   1.384       .  A
C46          H49   1.082       .  S
C47         N683   1.359       .  A
C47         C234   1.485       .  S
N50          C51   1.357       .  A
N50         C694   1.358       .  A
N50         C194   1.440       .  S
C51         C205   1.481       .  S
C51         C692   1.382       .  A
C52          C53   1.376       .  A
C52         C691   1.382   1_554  A
C52          H55   1.082       .  S
C53          C54   1.383       .  A
C53          H56   1.082       .  S
C54         N690   1.358   1_554  A
C54         C165   1.482       .  S
O57         Ni63   1.941       .  S
O57          C78   1.274       .  A
O58         Ni81   1.903       .  S
O58          C67   1.267       .  A
O59         Ni63   1.927       .  S
O59         Ni81   1.911       .  S
O59         Ni75   1.913       .  S
O59          H82   0.966       .  S
C60         C394   1.485       .  S
C60          O77   1.266       .  A
C60          O69   1.275       .  A
O61         Ni80   1.943       .  S
O61          C67   1.275       .  A
O62         Ni80   1.899       .  S
O62          C64   1.271       .  A
Ni63         O66   1.941       .  S
Ni63         O68   1.903       .  S
C64         C374   1.487       .  S
C64          O74   1.280       .  A
O65         Ni81   1.903       .  S
O65          C71   1.269       .  A
O66          C71   1.276       .  A
C67         C274   1.493       .  S
O68          C70   1.271       .  A
O69         Ni80   1.946       .  S
C70         C314   1.493       .  S
C70          O76   1.277       .  A
C71         C325   1.492       .  S
H72          O73   0.966       .  S
O73         Ni81   1.918       .  S
O73         Ni75   1.911       .  S
O73         Ni80   1.926       .  S
O74         Ni75   1.954       .  S
Ni75         O79   1.900       .  S
Ni75         O77   1.902       .  S
O76         Ni81   1.945       .  S
C78         C214   1.483       .  S
C78          O79   1.266       .  A
O83         Ni89   1.942       .  S
O83         C104   1.276       .  A
O84        Ni107   1.909       .  S
O84          C93   1.268       .  A
O85         Ni89   1.915       .  S
O85        Ni107   1.912   1_565  S
O85        Ni101   1.914       .  S
O85         H108   0.966       .  S
C86         C505   1.489       .  S
C86         O103   1.275       .  A
C86          O95   1.277   1_565  A
O87        Ni106   1.941       .  S
O87          C93   1.274       .  A
O88        Ni106   1.904       .  S
O88          C90   1.270   1_545  A
Ni89         O92   1.940       .  S
Ni89         O94   1.906       .  S
C90         C494   1.494       .  S
C90         O100   1.275       .  A
O91        Ni107   1.903       .  S
O91          C97   1.271   1_545  A
O92          C97   1.278       .  A
C93         C294   1.492       .  S
O94          C96   1.271       .  A
O95        Ni106   1.932       .  S
C96         C434   1.495   1_565  S
C96         O102   1.277   1_565  A
C97         C445   1.492       .  S
H98          O99   0.966       .  S
O99        Ni107   1.906       .  S
O99        Ni101   1.909   1_545  S
O99        Ni106   1.912       .  S
O100       Ni101   1.941       .  S
Ni101       O105   1.905       .  S
Ni101       O103   1.913       .  S
O102       Ni107   1.944       .  S
C104        C345   1.492       .  S
C104        O105   1.267       .  A
O109       Ni115   1.933       .  S
O109        C130   1.273   1_545  A
O110       Ni133   1.909       .  S
O110        C119   1.268       .  A
O111       Ni115   1.909       .  S
O111       Ni133   1.911   1_655  S
O111       Ni127   1.914   1_545  S
O111        H134   0.966   1_545  S
C112        C605   1.480       .  S
C112        O129   1.274   1_455  A
C112        O121   1.277       .  A
O113       Ni132   1.939       .  S
O113        C119   1.275   1_565  A
O114       Ni132   1.904       .  S
O114        C116   1.270       .  A
Ni115       O118   1.926       .  S
Ni115       O120   1.899       .  S
C116        C585   1.486       .  S
C116        O126   1.275   1_455  A
O117       Ni133   1.908       .  S
O117        C123   1.272       .  A
O118        C123   1.275   1_655  A
C119        C405   1.490       .  S
O120        C122   1.270   1_655  A
O121       Ni132   1.933       .  S
C122        C534   1.488       .  S
C122        O128   1.277       .  A
C123        C554   1.488       .  S
H124        O125   0.966       .  S
O125       Ni133   1.908   1_565  S
O125       Ni127   1.906   1_455  S
O125       Ni132   1.912       .  S
O126       Ni127   1.935       .  S
Ni127       O131   1.914       .  S
Ni127       O129   1.907       .  S
O128       Ni133   1.939       .  S
C130        C474   1.486       .  S
C130        O131   1.271       .  A
O135       Ni141   1.942       .  S
O135        C156   1.276       .  A
O136       Ni159   1.907       .  S
O136        C145   1.267       .  A
O137       Ni141   1.910       .  S
O137       Ni159   1.907       .  S
O137       Ni153   1.909   1_455  S
O137        H160   0.972       .  S
C138        C185   1.489       .  S
C138        O155   1.273       .  A
C138        O147   1.276       .  A
O139       Ni158   1.933       .  S
O139        C145   1.273   1_655  A
O140       Ni158   1.898       .  S
O140        C142   1.268       .  A
Ni141       O144   1.936       .  S
Ni141       O146   1.906       .  S
C142        C174   1.489       .  S
C142        O152   1.276       .  A
O143       Ni159   1.911       .  S
O143        C149   1.273       .  A
O144        C149   1.279       .  A
C145        C574   1.485       .  S
O146        C148   1.270       .  A
O147       Ni158   1.929       .  S
C148        C225   1.493       .  S
C148        O154   1.275       .  A
C149        C254   1.492       .  S
H150        O151   0.961   1_455  S
O151       Ni159   1.911   1_655  S
O151       Ni153   1.911       .  S
O151       Ni158   1.912       .  S
O152       Ni153   1.941       .  S
Ni153       O157   1.906       .  S
Ni153       O155   1.912       .  S
O154       Ni159   1.937       .  S
C156        C634   1.494       .  S
C156        O157   1.268   1_455  A
C161        C162   1.402       .  A
C161        C166   1.394       .  A
C161        H171   1.084       .  S
C162        C167   1.479       .  S
C162        C163   1.406       .  A
C163        C164   1.405       .  A
C163        F168   1.357       .  S
C164        C165   1.406       .  A
C164        H169   1.083       .  S
C165        C166   1.405       .  A
C166        F170   1.358       .  S
C167        C172   1.405       .  A
C167        C176   1.400       .  A
C172        C173   1.404       .  A
C172        F177   1.357       .  S
C173        C174   1.408       .  A
C173        H178   1.083       .  S
C174        C175   1.414       .  A
C175        C176   1.395       .  A
C175        F179   1.358       .  S
C176        H180   1.084       .  S
C181        C182   1.402       .  A
C181        C186   1.399       .  A
C181        H191   1.084       .  S
C182        C187   1.478       .  S
C182        C183   1.403       .  A
C183        C184   1.399       .  A
C183        F188   1.358       .  S
C184        C185   1.410       .  A
C184        H189   1.083       .  S
C185        C186   1.412       .  A
C186        F190   1.357       .  S
C187        C192   1.405       .  A
C187        C196   1.403       .  A
C192        C193   1.399       .  A
C192        F197   1.357       .  S
C193        C194   1.404       .  A
C193        H838   1.083       .  S
C194        C195   1.406       .  A
C195        C196   1.398       .  A
C195        F199   1.357       .  S
C196        H200   1.083       .  S
H198        C833   1.083       .  S
C201        C202   1.408       .  A
C201        C206   1.399       .  A
C201        H211   1.083       .  S
C202        C207   1.496       .  S
C202        C203   1.413       .  A
C203        C204   1.402       .  A
C203        F208   1.357       .  S
C204        C205   1.402       .  A
C204        H209   1.083       .  S
C205        C206   1.404       .  A
C206        F850   1.358       .  S
C207        C212   1.412       .  A
C207        C216   1.408       .  A
F210        C846   1.358       .  S
C212        C213   1.400       .  A
C212        F217   1.358       .  S
C213        C214   1.404       .  A
C213        H218   1.083       .  S
C214        C215   1.406       .  A
C215        C216   1.402       .  A
C215        F219   1.357       .  S
C216        H220   1.083       .  S
C221        C222   1.402       .  A
C221        C226   1.396       .  A
C221        H231   1.084       .  S
C222        C227   1.486       .  S
C222        C223   1.406       .  A
C223        C224   1.405       .  A
C223        F228   1.357       .  S
C224        C225   1.410       .  A
C224        H229   1.083       .  S
C225        C226   1.413       .  A
C226        F230   1.358       .  S
C227        C232   1.406       .  A
C227        C236   1.406       .  A
C232        C233   1.396       .  A
C232        F237   1.358       .  S
C233        C234   1.402       .  A
C233        H238   1.083       .  S
C234        C235   1.408       .  A
C235        C236   1.406       .  A
C235        F879   1.357       .  S
C236        H240   1.083       .  S
F239        C875   1.357       .  S
C241        C242   1.406       .  A
C241        C246   1.401       .  A
C241        H251   1.083       .  S
C242        C247   1.486       .  S
C242        C243   1.408       .  A
C243        C244   1.397       .  A
C243        F248   1.357       .  S
C244        C245   1.401       .  A
C244        H889   1.083       .  S
C245        C246   1.405       .  A
C246        F250   1.357   1_554  S
C247        C252   1.406       .  A
C247        C256   1.404       .  A
H249        C884   1.083       .  S
C252        C253   1.401       .  A
C252        F257   1.357       .  S
C253        C254   1.409       .  A
C253        H258   1.083       .  S
C254        C255   1.413       .  A
C255        C256   1.398       .  A
C255        F259   1.358       .  S
C256        H260   1.083       .  S
C261        C262   1.410       .  A
C261        C266   1.402       .  A
C261        H271   1.083       .  S
C262        C267   1.500       .  S
C262        C263   1.413       .  A
C263        C264   1.401       .  A
C263        F268   1.357       .  S
C264        C265   1.401       .  A
C264        H269   1.084       .  S
C265        C266   1.403       .  A
C266        F270   1.357       .  S
C267        C272   1.411       .  A
C267        C276   1.407       .  A
C272        C273   1.404       .  A
C272        F277   1.357       .  S
C273        C274   1.407       .  A
C273        H278   1.083       .  S
C274        C275   1.410       .  A
C275        C276   1.399       .  A
C275        F279   1.356       .  S
C276        H280   1.083       .  S
C281        C282   1.403       .  A
C281        C286   1.398       .  A
C281        H291   1.083       .  S
C282        C287   1.494       .  S
C282        C283   1.411       .  A
C283        C284   1.405       .  A
C283        F288   1.357       .  S
C284        C285   1.406       .  A
C284        H289   1.082       .  S
C285        C286   1.412       .  A
C286        F290   1.358       .  S
C287        C292   1.410       .  A
C287        C296   1.404       .  A
C292        C293   1.404       .  A
C292        F297   1.357       .  S
C293        C294   1.408       .  A
C293        H298   1.083       .  S
C294        C295   1.411       .  A
C295        C296   1.399       .  A
C295        F299   1.358       .  S
C296        H300   1.083       .  S
C301        C302   1.402       .  A
C301        C306   1.395       .  A
C301        H311   1.083       .  S
C302        C307   1.484       .  S
C302        C303   1.408       .  A
C303        C304   1.405       .  A
C303        F308   1.357       .  S
C304        C305   1.405       .  A
C304        H309   1.083       .  S
C305        C306   1.406       .  A
C306        F310   1.358       .  S
C307        C312   1.403       .  A
C307        C316   1.405       .  A
C312        C313   1.396       .  A
C312        F317   1.358       .  S
C313        C314   1.409       .  A
C313        H318   1.083       .  S
C314        C315   1.413       .  A
C315        C316   1.405       .  A
C315        F319   1.357       .  S
C316        H320   1.083       .  S
C321        C322   1.402       .  A
C321        C326   1.399       .  A
C321        H331   1.083       .  S
C322        C327   1.483       .  S
C322        C323   1.405       .  A
C323        C324   1.403       .  A
C323        F328   1.357       .  S
C324        C325   1.409       .  A
C324        H329   1.083       .  S
C325        C326   1.412       .  A
C326        F330   1.357       .  S
C327        C332   1.408       .  A
C327        C336   1.403       .  A
C332        C333   1.401       .  A
C332        F337   1.357       .  S
C333        C334   1.402       .  A
C333        H338   1.083       .  S
C334        C335   1.406       .  A
C335        C336   1.400       .  A
C335        F979   1.357   1_554  S
C336        H340   1.083       .  S
F339        C975   1.357       .  S
C341        C342   1.405       .  A
C341        C346   1.404       .  A
C341        H351   1.083       .  S
C342        C347   1.487       .  S
C342        C343   1.406       .  A
C343        C344   1.398       .  A
C343        F348   1.358       .  S
C344        C345   1.407       .  A
C344        H349   1.083       .  S
C345        C346   1.413       .  A
C346        F350   1.357       .  S
C347        C352   1.410       .  A
C347        C356   1.404       .  A
C352        C353   1.406       .  A
C352        F357   1.357       .  S
C353        C354   1.405       .  A
C353        H358   1.083       .  S
C354        C355   1.403       .  A
C355        C356   1.394       .  A
C355        F359   1.358       .  S
C356        H360   1.083       .  S
C361        C362   1.407       .  A
C361        C366   1.398       .  A
C361        H371   1.083       .  S
C362        C367   1.494       .  S
C362        C363   1.409       .  A
C363        C364   1.401       .  A
C363        F368   1.357       .  S
C364        C365   1.405       .  A
C364        H369   1.083       .  S
C365        C366   1.407       .  A
C366       F1010   1.354       .  S
C367        C372   1.409       .  A
C367        C376   1.409       .  A
F370       C1006   1.354       .  S
C372        C373   1.395       .  A
C372        F377   1.358       .  S
C373        C374   1.406       .  A
C373        H378   1.083       .  S
C374        C375   1.409       .  A
C375        C376   1.405       .  A
C375        F379   1.357       .  S
C376        H380   1.083       .  S
C381        C382   1.408       .  A
C381        C386   1.399       .  A
C381        H391   1.083       .  S
C382        C387   1.492       .  S
C382        C383   1.411       .  A
C383        C384   1.399       .  A
C383        F388   1.357       .  S
C384        C385   1.401       .  A
C384       H1029   1.083       .  S
C385        C386   1.401       .  A
C386        F390   1.357       .  S
C387        C392   1.409       .  A
C387        C396   1.407       .  A
H389       C1024   1.083       .  S
C392        C393   1.401       .  A
C392        F397   1.357       .  S
C393        C394   1.406       .  A
C393        H398   1.083       .  S
C394        C395   1.408       .  A
C395        C396   1.400       .  A
C395        F399   1.357       .  S
C396        H400   1.083       .  S
C401        C402   1.410       .  A
C401        C406   1.405       .  A
C401        H411   1.082       .  S
C402        C407   1.501       .  S
C402        C403   1.411   1_545  A
C403        C404   1.397       .  A
C403        F408   1.357       .  S
C404        C405   1.406   1_565  A
C404        H409   1.083       .  S
C405        C406   1.409       .  A
C406        F410   1.357       .  S
C407        C412   1.411       .  A
C407        C416   1.409       .  A
C412        C413   1.401       .  A
C412        F417   1.357       .  S
C413        C414   1.407       .  A
C413       H1058   1.083       .  S
C414        C415   1.406       .  A
C415        C416   1.401       .  A
C415        F419   1.356       .  S
C416        H420   1.082   1_545  S
H418       C1053   1.083       .  S
C421        C422   1.402       .  A
C421        C426   1.397       .  A
C421        H431   1.084       .  S
C422        C427   1.483       .  S
C422        C423   1.406       .  A
C423        C424   1.404       .  A
C423        F428   1.357       .  S
C424        C425   1.407       .  A
C424        H429   1.083       .  S
C425        C426   1.408       .  A
C426        F430   1.358       .  S
C427        C432   1.402   1_545  A
C427        C436   1.404       .  A
C432        C433   1.398       .  A
C432        F437   1.358       .  S
C433        C434   1.410   1_565  A
C433        H438   1.083       .  S
C434        C435   1.413       .  A
C435        C436   1.405       .  A
C435        F439   1.357       .  S
C436        H440   1.083       .  S
C441        C442   1.403       .  A
C441        C446   1.398       .  A
C441        H451   1.083       .  S
C442        C447   1.487       .  S
C442        C443   1.407   1_545  A
C443        C444   1.402       .  A
C443        F448   1.357       .  S
C444        C445   1.408       .  A
C444        H449   1.083       .  S
C445        C446   1.413   1_565  A
C446        F450   1.358       .  S
C447        C452   1.409       .  A
C447        C456   1.406       .  A
C452        C453   1.399       .  A
C452        F457   1.357       .  S
C453        C454   1.402       .  A
C453        H458   1.083       .  S
C454        C455   1.406       .  A
C455        C456   1.400       .  A
C455       F1099   1.357   1_544  S
C456        H460   1.083   1_545  S
F459       C1095   1.357   1_565  S
C461        C462   1.408       .  A
C461        C466   1.403       .  A
C461        H471   1.083   1_565  S
C462        C467   1.494       .  S
C462        C463   1.409       .  A
C463        C464   1.402       .  A
C463        F468   1.357       .  S
C464        C465   1.402       .  A
C464        H469   1.083       .  S
C465        C466   1.404       .  A
C466        F470   1.358       .  S
C467        C472   1.408       .  A
C467        C476   1.408       .  A
C472        C473   1.403       .  A
C472        F477   1.357   1_565  S
C473        C474   1.407       .  A
C473        H478   1.083   1_565  S
C474        C475   1.406       .  A
C475        C476   1.402       .  A
C475        F479   1.357       .  S
C476        H480   1.083       .  S
C481        C482   1.407       .  A
C481        C486   1.405       .  A
C481        H491   1.083       .  S
C482        C487   1.488       .  S
C482        C483   1.408       .  A
C483        C484   1.397       .  A
C483        F488   1.358       .  S
C484        C485   1.402       .  A
C484        H489   1.083       .  S
C485        C486   1.406       .  A
C486        F490   1.357       .  S
C487        C492   1.404       .  A
C487        C496   1.406       .  A
C492        C493   1.396   1_565  A
C492        F497   1.358   1_565  S
C493        C494   1.409   1_545  A
C493        H498   1.083       .  S
C494        C495   1.412       .  A
C495        C496   1.406       .  A
C495        F499   1.357       .  S
C496        H500   1.083       .  S
C501        C502   1.401   1_545  A
C501        C506   1.400       .  A
C501        H511   1.083       .  S
C502        C507   1.479       .  S
C502        C503   1.404       .  A
C503        C504   1.399       .  A
C503        F508   1.358       .  S
C504        C505   1.409       .  A
C504        H509   1.083       .  S
C505        C506   1.413   1_565  A
C506        F510   1.357       .  S
C507        C512   1.405       .  A
C507        C516   1.404       .  A
C512        C513   1.397       .  A
C512        F517   1.357       .  S
C513        C514   1.402       .  A
C513        H518   1.083       .  S
C514        C515   1.405       .  A
C515        C516   1.400       .  A
C515       F1159   1.357   1_565  S
C516        H520   1.083   1_565  S
F519       C1155   1.357   1_545  S
C521        C522   1.403       .  A
C521        C526   1.393       .  A
C521        H531   1.083       .  S
C522        C527   1.481       .  S
C522        C523   1.407       .  A
C523        C524   1.403       .  A
C523        F528   1.357       .  S
C524        C525   1.404       .  A
C524        H529   1.083       .  S
C525        C526   1.404       .  A
C526        F530   1.358       .  S
C527        C532   1.403   1_455  A
C527        C536   1.405       .  A
C532        C533   1.394       .  A
C532        F537   1.358       .  S
C533        C534   1.409   1_655  A
C533        H538   1.083       .  S
C534        C535   1.411       .  A
C535        C536   1.402       .  A
C535        F539   1.357       .  S
C536        H540   1.083       .  S
C541        C542   1.405       .  A
C541        C546   1.399       .  A
C541        H551   1.083       .  S
C542        C547   1.484       .  S
C542        C543   1.407       .  A
C543        C544   1.398       .  A
C543        F548   1.358   1_455  S
C544        C545   1.404       .  A
C544       H1189   1.083   1_455  S
C545        C546   1.404       .  A
C546        F550   1.356       .  S
C547        C552   1.406       .  A
C547        C556   1.403   1_455  A
H549       C1184   1.083   1_655  S
C552        C553   1.398       .  A
C552        F557   1.358       .  S
C553        C554   1.408       .  A
C553        H558   1.083       .  S
C554        C555   1.412   1_455  A
C555        C556   1.398       .  A
C555        F559   1.357       .  S
C556        H560   1.083       .  S
C561        C562   1.406       .  A
C561        C566   1.402       .  A
C561        H571   1.083   1_455  S
C562        C567   1.487       .  S
C562        C563   1.405       .  A
C563        C564   1.396       .  A
C563        F568   1.358       .  S
C564        C565   1.406       .  A
C564        H569   1.083       .  S
C565        C566   1.409       .  A
C566        F570   1.356       .  S
C567        C572   1.406       .  A
C567        C576   1.407       .  A
C572        C573   1.397   1_455  A
C572        F577   1.358   1_455  S
C573        C574   1.407   1_655  A
C573        H578   1.083       .  S
C574        C575   1.408       .  A
C575        C576   1.402       .  A
C575        F579   1.357       .  S
C576        H580   1.083       .  S
C581        C582   1.407       .  A
C581        C586   1.402       .  A
C581        H591   1.083       .  S
C582        C587   1.489       .  S
C582        C583   1.408   1_655  A
C583        C584   1.396       .  A
C583        F588   1.358       .  S
C584        C585   1.407       .  A
C584        H589   1.083       .  S
C585        C586   1.409   1_455  A
C586        F590   1.357       .  S
C587        C592   1.409       .  A
C587        C596   1.406       .  A
C592        C593   1.400       .  A
C592        F597   1.357       .  S
C593        C594   1.404       .  A
C593        H598   1.083       .  S
C594        C595   1.406       .  A
C595        C596   1.397       .  A
C595        F599   1.356   1_655  S
C596        H600   1.083   1_655  S
C601        C602   1.407   1_455  A
C601        C606   1.404       .  A
C601        H611   1.083       .  S
C602        C607   1.486       .  S
C602        C603   1.406       .  A
C603        C604   1.393       .  A
C603        F608   1.358       .  S
C604        C605   1.404   1_655  A
C604        H609   1.083       .  S
C605        C606   1.408       .  A
C606        F610   1.357       .  S
C607        C612   1.409   1_655  A
C607        C616   1.405       .  A
C612        C613   1.402       .  A
C612        F617   1.357       .  S
C613        C614   1.404   1_455  A
C613        H618   1.083       .  S
C614        C615   1.404       .  A
C615        C616   1.393       .  A
C615        F619   1.357       .  S
C616        H620   1.083       .  S
C621        C622   1.403       .  A
C621        C626   1.395       .  A
C621        H631   1.083   1_655  S
C622        C627   1.488       .  S
C622        C623   1.410       .  A
C623        C624   1.406       .  A
C623        F628   1.357       .  S
C624        C625   1.405       .  A
C624        H629   1.083       .  S
C625        C626   1.405       .  A
C626        F630   1.358   1_655  S
C627        C632   1.406   1_655  A
C627        C636   1.405       .  A
C632        C633   1.399       .  A
C632        F637   1.358       .  S
C633        C634   1.409       .  A
C633        H638   1.083       .  S
C634        C635   1.412   1_455  A
C635        C636   1.403       .  A
C635        F639   1.357       .  S
C636        H640   1.083       .  S
N641        C642   1.357       .  A
N641       C1254   1.440       .  S
C642       C1265   1.483       .  S
C643        C644   1.377       .  A
C643        H646   1.082       .  S
C644        C645   1.381       .  A
C644        H647   1.082       .  S
C645       C1234   1.484       .  S
N648        C649   1.361       .  A
N648       C1185   1.441       .  S
C649       C1205   1.488       .  S
C650        C651   1.372       .  A
C650        H653   1.082       .  S
C651        C652   1.380       .  A
C651        H654   1.082       .  S
C652       C1165   1.478       .  S
N655        C656   1.356       .  A
N655       C1154   1.438       .  S
C656       C1105   1.481       .  S
C657        C658   1.378       .  A
C657        H660   1.082       .  S
C658        C659   1.383       .  A
C658        H661   1.082       .  S
C659       C1125   1.483       .  S
N662        C663   1.362       .  A
N662       C1094   1.442       .  S
C663       C1054   1.492       .  S
C664        C665   1.375       .  A
C664        H667   1.082       .  S
C665        C666   1.383       .  A
C665        H668   1.082       .  S
C666       C1065   1.488       .  S
N669        C670   1.355       .  A
N669       C1025   1.437       .  S
C670        C994   1.480       .  S
C671        C672   1.376       .  A
C671        H674   1.082       .  S
C672        C673   1.384       .  A
C672        H675   1.082       .  S
C673       C1005   1.488       .  S
N676        C677   1.364       .  A
N676        C974   1.441       .  S
C677        C925   1.495       .  S
C678        C679   1.372       .  A
C678        H681   1.082       .  S
C679        C680   1.379       .  A
C679        H682   1.082       .  S
C680        C945   1.483       .  S
N683        C684   1.357       .  A
N683        C885   1.439       .  S
C684        C905   1.481       .  S
C685        C686   1.379       .  A
C685        H688   1.082       .  S
C686        C687   1.384       .  A
C686        H689   1.082       .  S
C687        C874   1.485       .  S
N690        C691   1.357       .  A
N690        C834   1.440       .  S
C691        C845   1.481       .  S
C692        C693   1.376       .  A
C692        H695   1.082       .  S
C693        C694   1.383       .  A
C693        H696   1.082       .  S
C694        C805   1.482       .  S
O697       Ni703   1.941       .  S
O697        C718   1.274       .  A
O698       Ni721   1.903       .  S
O698        C707   1.267       .  A
O699       Ni703   1.927       .  S
O699       Ni721   1.911       .  S
O699       Ni715   1.913       .  S
O699        H722   0.966       .  S
C700       C1034   1.485       .  S
C700        O717   1.266       .  A
C700        O709   1.275       .  A
O701       Ni720   1.943       .  S
O701        C707   1.275       .  A
O702       Ni720   1.899       .  S
O702        C704   1.271       .  A
Ni703       O706   1.941       .  S
Ni703       O708   1.903       .  S
C704       C1014   1.487       .  S
C704        O714   1.280       .  A
O705       Ni721   1.903       .  S
O705        C711   1.269       .  A
O706        C711   1.276       .  A
C707        C914   1.493       .  S
O708        C710   1.271       .  A
O709       Ni720   1.946       .  S
C710        C954   1.493       .  S
C710        O716   1.277       .  A
C711        C965   1.492       .  S
H712        O713   0.966       .  S
O713       Ni721   1.918       .  S
O713       Ni715   1.911       .  S
O713       Ni720   1.926       .  S
O714       Ni715   1.954       .  S
Ni715       O719   1.900       .  S
Ni715       O717   1.902       .  S
O716       Ni721   1.945       .  S
C718        C854   1.483       .  S
C718        O719   1.266       .  A
O723       Ni729   1.942       .  S
O723        C744   1.276       .  A
O724       Ni747   1.909       .  S
O724        C733   1.268       .  A
O725       Ni729   1.915       .  S
O725       Ni747   1.912   1_565  S
O725       Ni741   1.914       .  S
O725        H748   0.966       .  S
C726       C1145   1.489       .  S
C726        O743   1.275       .  A
C726        O735   1.277   1_565  A
O727       Ni746   1.941       .  S
O727        C733   1.274       .  A
O728       Ni746   1.904       .  S
O728        C730   1.270   1_545  A
Ni729       O732   1.940       .  S
Ni729       O734   1.906       .  S
C730       C1134   1.494       .  S
C730        O740   1.275       .  A
O731       Ni747   1.903       .  S
O731        C737   1.271   1_545  A
O732        C737   1.278       .  A
C733        C934   1.492       .  S
O734        C736   1.271       .  A
O735       Ni746   1.932       .  S
C736       C1074   1.495   1_565  S
C736        O742   1.277   1_565  A
C737       C1085   1.492       .  S
H738        O739   0.966       .  S
O739       Ni747   1.906       .  S
O739       Ni741   1.909   1_545  S
O739       Ni746   1.912       .  S
O740       Ni741   1.941       .  S
Ni741       O745   1.905       .  S
Ni741       O743   1.913       .  S
O742       Ni747   1.944       .  S
C744        C985   1.492       .  S
C744        O745   1.267       .  A
O749       Ni755   1.933       .  S
O749        C770   1.273   1_545  A
O750       Ni773   1.909       .  S
O750        C759   1.268       .  A
O751       Ni755   1.909       .  S
O751       Ni773   1.911   1_655  S
O751       Ni767   1.914   1_545  S
O751        H774   0.966   1_545  S
C752       C1245   1.480       .  S
C752        O769   1.274   1_455  A
C752        O761   1.277       .  A
O753       Ni772   1.939       .  S
O753        C759   1.275   1_565  A
O754       Ni772   1.904       .  S
O754        C756   1.270       .  A
Ni755       O758   1.926       .  S
Ni755       O760   1.899       .  S
C756       C1225   1.486       .  S
C756        O766   1.275   1_455  A
O757       Ni773   1.908       .  S
O757        C763   1.272       .  A
O758        C763   1.275   1_655  A
C759       C1045   1.490       .  S
O760        C762   1.270   1_655  A
O761       Ni772   1.933       .  S
C762       C1174   1.488       .  S
C762        O768   1.277       .  A
C763       C1194   1.488       .  S
H764        O765   0.966       .  S
O765       Ni773   1.908   1_565  S
O765       Ni767   1.906   1_455  S
O765       Ni772   1.912       .  S
O766       Ni767   1.935       .  S
Ni767       O771   1.914       .  S
Ni767       O769   1.907       .  S
O768       Ni773   1.939       .  S
C770       C1114   1.486       .  S
C770        O771   1.271       .  A
O775       Ni781   1.942       .  S
O775        C796   1.276       .  A
O776       Ni799   1.907       .  S
O776        C785   1.267       .  A
O777       Ni781   1.910       .  S
O777       Ni799   1.907       .  S
O777       Ni793   1.909   1_455  S
O777        H800   0.972       .  S
C778        C825   1.489       .  S
C778        O795   1.273       .  A
C778        O787   1.276       .  A
O779       Ni798   1.933       .  S
O779        C785   1.273   1_655  A
O780       Ni798   1.898       .  S
O780        C782   1.268       .  A
Ni781       O784   1.936       .  S
Ni781       O786   1.906       .  S
C782        C814   1.489       .  S
C782        O792   1.276       .  A
O783       Ni799   1.911       .  S
O783        C789   1.273       .  A
O784        C789   1.279       .  A
C785       C1214   1.485       .  S
O786        C788   1.270       .  A
O787       Ni798   1.929       .  S
C788        C865   1.493       .  S
C788        O794   1.275       .  A
C789        C894   1.492       .  S
H790        O791   0.961   1_455  S
O791       Ni799   1.911   1_655  S
O791       Ni793   1.911       .  S
O791       Ni798   1.912       .  S
O792       Ni793   1.941       .  S
Ni793       O797   1.906       .  S
Ni793       O795   1.912       .  S
O794       Ni799   1.937       .  S
C796       C1274   1.494       .  S
C796        O797   1.268   1_455  A
C801        C802   1.402       .  A
C801        C806   1.394       .  A
C801        H811   1.084       .  S
C802        C807   1.479       .  S
C802        C803   1.406       .  A
C803        C804   1.405       .  A
C803        F808   1.357       .  S
C804        C805   1.406       .  A
C804        H809   1.083       .  S
C805        C806   1.405       .  A
C806        F810   1.358       .  S
C807        C812   1.405       .  A
C807        C816   1.400       .  A
C812        C813   1.404       .  A
C812        F817   1.357       .  S
C813        C814   1.408       .  A
C813        H818   1.083       .  S
C814        C815   1.414       .  A
C815        C816   1.395       .  A
C815        F819   1.358       .  S
C816        H820   1.084       .  S
C821        C822   1.402       .  A
C821        C826   1.399       .  A
C821        H831   1.084       .  S
C822        C827   1.478       .  S
C822        C823   1.403       .  A
C823        C824   1.399       .  A
C823        F828   1.358       .  S
C824        C825   1.410       .  A
C824        H829   1.083       .  S
C825        C826   1.412       .  A
C826        F830   1.357       .  S
C827        C832   1.405       .  A
C827        C836   1.403       .  A
C832        C833   1.399       .  A
C832        F837   1.357       .  S
C833        C834   1.404       .  A
C834        C835   1.406       .  A
C835        C836   1.398       .  A
C835        F839   1.357       .  S
C836        H840   1.083       .  S
C841        C842   1.408       .  A
C841        C846   1.399       .  A
C841        H851   1.083       .  S
C842        C847   1.496       .  S
C842        C843   1.413       .  A
C843        C844   1.402       .  A
C843        F848   1.357       .  S
C844        C845   1.402       .  A
C844        H849   1.083       .  S
C845        C846   1.404       .  A
C847        C852   1.412       .  A
C847        C856   1.408       .  A
C852        C853   1.400       .  A
C852        F857   1.358       .  S
C853        C854   1.404       .  A
C853        H858   1.083       .  S
C854        C855   1.406       .  A
C855        C856   1.402       .  A
C855        F859   1.357       .  S
C856        H860   1.083       .  S
C861        C862   1.402       .  A
C861        C866   1.396       .  A
C861        H871   1.084       .  S
C862        C867   1.486       .  S
C862        C863   1.406       .  A
C863        C864   1.405       .  A
C863        F868   1.357       .  S
C864        C865   1.410       .  A
C864        H869   1.083       .  S
C865        C866   1.413       .  A
C866        F870   1.358       .  S
C867        C872   1.406       .  A
C867        C876   1.406       .  A
C872        C873   1.396       .  A
C872        F877   1.358       .  S
C873        C874   1.402       .  A
C873        H878   1.083       .  S
C874        C875   1.408       .  A
C875        C876   1.406       .  A
C876        H880   1.083       .  S
C881        C882   1.406       .  A
C881        C886   1.401       .  A
C881        H891   1.083       .  S
C882        C887   1.486       .  S
C882        C883   1.408       .  A
C883        C884   1.397       .  A
C883        F888   1.357       .  S
C884        C885   1.401       .  A
C885        C886   1.405       .  A
C886        F890   1.357       .  S
C887        C892   1.406       .  A
C887        C896   1.404       .  A
C892        C893   1.401       .  A
C892        F897   1.357       .  S
C893        C894   1.409       .  A
C893        H898   1.083       .  S
C894        C895   1.413       .  A
C895        C896   1.398       .  A
C895        F899   1.358       .  S
C896        H900   1.083       .  S
C901        C902   1.410       .  A
C901        C906   1.402       .  A
C901        H911   1.083       .  S
C902        C907   1.500       .  S
C902        C903   1.413       .  A
C903        C904   1.401       .  A
C903        F908   1.357       .  S
C904        C905   1.401       .  A
C904        H909   1.084       .  S
C905        C906   1.403       .  A
C906        F910   1.357       .  S
C907        C912   1.411       .  A
C907        C916   1.407       .  A
C912        C913   1.404       .  A
C912        F917   1.357       .  S
C913        C914   1.407       .  A
C913        H918   1.083       .  S
C914        C915   1.410       .  A
C915        C916   1.399       .  A
C915        F919   1.356       .  S
C916        H920   1.083       .  S
C921        C922   1.403       .  A
C921        C926   1.398       .  A
C921        H931   1.083       .  S
C922        C927   1.494       .  S
C922        C923   1.411       .  A
C923        C924   1.405       .  A
C923        F928   1.357       .  S
C924        C925   1.406       .  A
C924        H929   1.082       .  S
C925        C926   1.412       .  A
C926        F930   1.358       .  S
C927        C932   1.410       .  A
C927        C936   1.404       .  A
C932        C933   1.404       .  A
C932        F937   1.357       .  S
C933        C934   1.407       .  A
C933        H938   1.083       .  S
C934        C935   1.411       .  A
C935        C936   1.399       .  A
C935        F939   1.358       .  S
C936        H940   1.083       .  S
C941        C942   1.402       .  A
C941        C946   1.395       .  A
C941        H951   1.083       .  S
C942        C947   1.484       .  S
C942        C943   1.408       .  A
C943        C944   1.405       .  A
C943        F948   1.357       .  S
C944        C945   1.405       .  A
C944        H949   1.083       .  S
C945        C946   1.406       .  A
C946        F950   1.358       .  S
C947        C952   1.403       .  A
C947        C956   1.405       .  A
C952        C953   1.396       .  A
C952        F957   1.358       .  S
C953        C954   1.409       .  A
C953        H958   1.083       .  S
C954        C955   1.413       .  A
C955        C956   1.405       .  A
C955        F959   1.357       .  S
C956        H960   1.083       .  S
C961        C962   1.402       .  A
C961        C966   1.399       .  A
C961        H971   1.083       .  S
C962        C967   1.483       .  S
C962        C963   1.405       .  A
C963        C964   1.403       .  A
C963        F968   1.357       .  S
C964        C965   1.409       .  A
C964        H969   1.083       .  S
C965        C966   1.412       .  A
C966        F970   1.357       .  S
C967        C972   1.408       .  A
C967        C976   1.403       .  A
C972        C973   1.401       .  A
C972        F977   1.357       .  S
C973        C974   1.402       .  A
C973        H978   1.083       .  S
C974        C975   1.406       .  A
C975        C976   1.400       .  A
C976        H980   1.083       .  S
C981        C982   1.405       .  A
C981        C986   1.404       .  A
C981        H991   1.083       .  S
C982        C987   1.487       .  S
C982        C983   1.406       .  A
C983        C984   1.398       .  A
C983        F988   1.358       .  S
C984        C985   1.407       .  A
C984        H989   1.083       .  S
C985        C986   1.413       .  A
C986        F990   1.357       .  S
C987        C992   1.410       .  A
C987        C996   1.404       .  A
C992        C993   1.406       .  A
C992        F997   1.357       .  S
C993        C994   1.405       .  A
C993        H998   1.083       .  S
C994        C995   1.403       .  A
C995        C996   1.394       .  A
C995        F999   1.358       .  S
C996       H1000   1.083       .  S
C1001      C1002   1.407       .  A
C1001      C1006   1.398       .  A
C1001      H1011   1.083       .  S
C1002      C1007   1.494       .  S
C1002      C1003   1.409       .  A
C1003      C1004   1.401       .  A
C1003      F1008   1.357       .  S
C1004      C1005   1.405       .  A
C1004      H1009   1.083       .  S
C1005      C1006   1.407       .  A
C1007      C1012   1.409       .  A
C1007      C1016   1.409       .  A
C1012      C1013   1.395       .  A
C1012      F1017   1.358       .  S
C1013      C1014   1.406       .  A
C1013      H1018   1.083       .  S
C1014      C1015   1.409       .  A
C1015      C1016   1.405       .  A
C1015      F1019   1.357       .  S
C1016      H1020   1.083       .  S
C1021      C1022   1.408       .  A
C1021      C1026   1.399       .  A
C1021      H1031   1.083       .  S
C1022      C1027   1.492       .  S
C1022      C1023   1.411       .  A
C1023      C1024   1.399       .  A
C1023      F1028   1.357       .  S
C1024      C1025   1.401       .  A
C1025      C1026   1.401       .  A
C1026      F1030   1.357       .  S
C1027      C1032   1.409       .  A
C1027      C1036   1.407       .  A
C1032      C1033   1.401       .  A
C1032      F1037   1.357       .  S
C1033      C1034   1.406       .  A
C1033      H1038   1.083       .  S
C1034      C1035   1.408       .  A
C1035      C1036   1.400       .  A
C1035      F1039   1.357       .  S
C1036      H1040   1.083       .  S
C1041      C1042   1.410       .  A
C1041      C1046   1.405       .  A
C1041      H1051   1.082       .  S
C1042      C1047   1.501       .  S
C1042      C1043   1.411   1_545  A
C1043      C1044   1.397       .  A
C1043      F1048   1.357       .  S
C1044      C1045   1.406   1_565  A
C1044      H1049   1.083       .  S
C1045      C1046   1.409       .  A
C1046      F1050   1.357       .  S
C1047      C1052   1.411       .  A
C1047      C1056   1.409       .  A
C1052      C1053   1.401       .  A
C1052      F1057   1.357       .  S
C1053      C1054   1.407       .  A
C1054      C1055   1.406       .  A
C1055      C1056   1.401       .  A
C1055      F1059   1.356       .  S
C1056      H1060   1.082   1_545  S
C1061      C1062   1.402       .  A
C1061      C1066   1.397       .  A
C1061      H1071   1.084       .  S
C1062      C1067   1.483       .  S
C1062      C1063   1.406       .  A
C1063      C1064   1.404       .  A
C1063      F1068   1.357       .  S
C1064      C1065   1.407       .  A
C1064      H1069   1.083       .  S
C1065      C1066   1.408       .  A
C1066      F1070   1.358       .  S
C1067      C1072   1.402   1_545  A
C1067      C1076   1.404       .  A
C1072      C1073   1.398       .  A
C1072      F1077   1.358       .  S
C1073      C1074   1.410   1_565  A
C1073      H1078   1.083       .  S
C1074      C1075   1.413       .  A
C1075      C1076   1.405       .  A
C1075      F1079   1.357       .  S
C1076      H1080   1.083       .  S
C1081      C1082   1.403       .  A
C1081      C1086   1.398       .  A
C1081      H1091   1.083       .  S
C1082      C1087   1.487       .  S
C1082      C1083   1.407   1_545  A
C1083      C1084   1.402       .  A
C1083      F1088   1.357       .  S
C1084      C1085   1.408       .  A
C1084      H1089   1.083       .  S
C1085      C1086   1.413   1_565  A
C1086      F1090   1.358       .  S
C1087      C1092   1.409       .  A
C1087      C1096   1.406       .  A
C1092      C1093   1.399       .  A
C1092      F1097   1.357       .  S
C1093      C1094   1.402       .  A
C1093      H1098   1.083       .  S
C1094      C1095   1.406       .  A
C1095      C1096   1.400       .  A
C1096      H1100   1.083   1_545  S
C1101      C1102   1.408       .  A
C1101      C1106   1.403       .  A
C1101      H1111   1.083   1_565  S
C1102      C1107   1.494       .  S
C1102      C1103   1.409       .  A
C1103      C1104   1.402       .  A
C1103      F1108   1.357       .  S
C1104      C1105   1.402       .  A
C1104      H1109   1.083       .  S
C1105      C1106   1.404       .  A
C1106      F1110   1.358       .  S
C1107      C1112   1.408       .  A
C1107      C1116   1.408       .  A
C1112      C1113   1.403       .  A
C1112      F1117   1.357   1_565  S
C1113      C1114   1.407       .  A
C1113      H1118   1.083   1_565  S
C1114      C1115   1.406       .  A
C1115      C1116   1.402       .  A
C1115      F1119   1.357       .  S
C1116      H1120   1.083       .  S
C1121      C1122   1.407       .  A
C1121      C1126   1.405       .  A
C1121      H1131   1.083       .  S
C1122      C1127   1.488       .  S
C1122      C1123   1.408       .  A
C1123      C1124   1.397       .  A
C1123      F1128   1.358       .  S
C1124      C1125   1.402       .  A
C1124      H1129   1.083       .  S
C1125      C1126   1.406       .  A
C1126      F1130   1.357       .  S
C1127      C1132   1.404       .  A
C1127      C1136   1.406       .  A
C1132      C1133   1.396   1_565  A
C1132      F1137   1.358   1_565  S
C1133      C1134   1.409   1_545  A
C1133      H1138   1.083       .  S
C1134      C1135   1.412       .  A
C1135      C1136   1.406       .  A
C1135      F1139   1.357       .  S
C1136      H1140   1.083       .  S
C1141      C1142   1.401   1_545  A
C1141      C1146   1.400       .  A
C1141      H1151   1.083       .  S
C1142      C1147   1.479       .  S
C1142      C1143   1.404       .  A
C1143      C1144   1.399       .  A
C1143      F1148   1.358       .  S
C1144      C1145   1.409       .  A
C1144      H1149   1.083       .  S
C1145      C1146   1.413   1_565  A
C1146      F1150   1.357       .  S
C1147      C1152   1.405       .  A
C1147      C1156   1.404       .  A
C1152      C1153   1.397       .  A
C1152      F1157   1.357       .  S
C1153      C1154   1.402       .  A
C1153      H1158   1.083       .  S
C1154      C1155   1.405       .  A
C1155      C1156   1.400       .  A
C1156      H1160   1.083   1_565  S
C1161      C1162   1.403       .  A
C1161      C1166   1.393       .  A
C1161      H1171   1.083       .  S
C1162      C1167   1.481       .  S
C1162      C1163   1.407       .  A
C1163      C1164   1.403       .  A
C1163      F1168   1.357       .  S
C1164      C1165   1.404       .  A
C1164      H1169   1.083       .  S
C1165      C1166   1.404       .  A
C1166      F1170   1.358       .  S
C1167      C1172   1.403   1_455  A
C1167      C1176   1.405       .  A
C1172      C1173   1.394       .  A
C1172      F1177   1.358       .  S
C1173      C1174   1.409   1_655  A
C1173      H1178   1.083       .  S
C1174      C1175   1.411       .  A
C1175      C1176   1.402       .  A
C1175      F1179   1.357       .  S
C1176      H1180   1.083       .  S
C1181      C1182   1.405       .  A
C1181      C1186   1.399       .  A
C1181      H1191   1.083       .  S
C1182      C1187   1.484       .  S
C1182      C1183   1.407       .  A
C1183      C1184   1.398       .  A
C1183      F1188   1.358   1_455  S
C1184      C1185   1.404       .  A
C1185      C1186   1.404       .  A
C1186      F1190   1.356       .  S
C1187      C1192   1.406       .  A
C1187      C1196   1.403   1_455  A
C1192      C1193   1.398       .  A
C1192      F1197   1.358       .  S
C1193      C1194   1.408       .  A
C1193      H1198   1.083       .  S
C1194      C1195   1.412   1_455  A
C1195      C1196   1.398       .  A
C1195      F1199   1.357       .  S
C1196      H1200   1.083       .  S
C1201      C1202   1.406       .  A
C1201      C1206   1.402       .  A
C1201      H1211   1.083   1_455  S
C1202      C1207   1.487       .  S
C1202      C1203   1.405       .  A
C1203      C1204   1.396       .  A
C1203      F1208   1.358       .  S
C1204      C1205   1.406       .  A
C1204      H1209   1.083       .  S
C1205      C1206   1.409       .  A
C1206      F1210   1.356       .  S
C1207      C1212   1.406       .  A
C1207      C1216   1.407       .  A
C1212      C1213   1.397   1_455  A
C1212      F1217   1.358   1_455  S
C1213      C1214   1.407   1_655  A
C1213      H1218   1.083       .  S
C1214      C1215   1.408       .  A
C1215      C1216   1.402       .  A
C1215      F1219   1.357       .  S
C1216      H1220   1.083       .  S
C1221      C1222   1.407       .  A
C1221      C1226   1.402       .  A
C1221      H1231   1.083       .  S
C1222      C1227   1.489       .  S
C1222      C1223   1.408   1_655  A
C1223      C1224   1.396       .  A
C1223      F1228   1.358       .  S
C1224      C1225   1.407       .  A
C1224      H1229   1.083       .  S
C1225      C1226   1.409   1_455  A
C1226      F1230   1.357       .  S
C1227      C1232   1.409       .  A
C1227      C1236   1.406       .  A
C1232      C1233   1.400       .  A
C1232      F1237   1.357       .  S
C1233      C1234   1.404       .  A
C1233      H1238   1.083       .  S
C1234      C1235   1.406       .  A
C1235      C1236   1.397       .  A
C1235      F1239   1.356   1_655  S
C1236      H1240   1.083   1_655  S
C1241      C1242   1.407   1_455  A
C1241      C1246   1.404       .  A
C1241      H1251   1.083       .  S
C1242      C1247   1.486       .  S
C1242      C1243   1.406       .  A
C1243      C1244   1.393       .  A
C1243      F1248   1.358       .  S
C1244      C1245   1.404   1_655  A
C1244      H1249   1.083       .  S
C1245      C1246   1.408       .  A
C1246      F1250   1.357       .  S
C1247      C1252   1.409   1_655  A
C1247      C1256   1.405       .  A
C1252      C1253   1.402       .  A
C1252      F1257   1.357       .  S
C1253      C1254   1.404   1_455  A
C1253      H1258   1.083       .  S
C1254      C1255   1.404       .  A
C1255      C1256   1.393       .  A
C1255      F1259   1.357       .  S
C1256      H1260   1.083       .  S
C1261      C1262   1.403       .  A
C1261      C1266   1.395       .  A
C1261      H1271   1.083   1_655  S
C1262      C1267   1.488       .  S
C1262      C1263   1.410       .  A
C1263      C1264   1.406       .  A
C1263      F1268   1.357       .  S
C1264      C1265   1.405       .  A
C1264      H1269   1.083       .  S
C1265      C1266   1.405       .  A
C1266      F1270   1.358   1_655  S
C1267      C1272   1.406   1_655  A
C1267      C1276   1.405       .  A
C1272      C1273   1.399       .  A
C1272      F1277   1.358       .  S
C1273      C1274   1.409       .  A
C1273      H1278   1.083       .  S
C1274      C1275   1.412   1_455  A
C1275      C1276   1.403       .  A
C1275      F1279   1.357       .  S
C1276      H1280   1.083       .  S
