geometry optimzed in LAMMPS
_audit_creation_date              2020-12-01 
_audit_creation_method            'lammps2cif' 
_symmetry_space_group_name_H-M    'P1' 
_symmetry_Int_Tables_number       1 
_symmetry_cell_setting            triclinic 
loop_ 
_symmetry_equiv_pos_as_xyz 
  x,y,z 
_cell_length_a                    32.43004165 
_cell_length_b                    29.110837294981607 
_cell_length_c                    29.961917755424704 
_cell_angle_alpha                 90.86572072637622 
_cell_angle_beta                  107.14727732584444 
_cell_angle_gamma                 89.17112440290357 
loop_ 
_atom_site_label 
_atom_site_type_symbol 
_atom_site_fract_x 
_atom_site_fract_y 
_atom_site_fract_z 
_atom_site_charge 
In1        In  0.47569402  0.99596356  0.81532193     1.36900
C2          C  0.40558935  0.49992725  0.74416745     0.78300
O3          O  0.46607063  0.07129742  0.80852746    -0.60100
O4          O  0.51865095  0.04159454  0.78885540    -0.51100
C5          C  0.49614324  0.99887573  0.90775834     0.71000
O6          O  0.45755161  0.49755707  0.88171228    -0.45900
C7          C  0.48883786  0.40978382  0.79488578     0.75700
O8          O  0.40395720  0.00412842  0.78591660    -0.57800
O9          O  0.51734859  0.44006669  0.79824591    -0.47900
O10         O  0.44281801  0.49315926  0.74018161    -0.54200
C11         C  0.49547603  0.07694419  0.78947754     0.85800
O12         O  0.52413878  0.99850523  0.88603894    -0.56100
O13         O  0.45639184  0.42286452  0.80688614    -0.59400
C14         C  0.50498837  0.24562904  0.68597349    -0.01800
C15         C  0.35034842  0.23809151  0.51422132     0.30700
C16         C  0.28496644  0.23833102  0.43131275     0.30700
C17         C  0.32057398  0.28158683  0.50504096    -0.05500
C18         C  0.36430286  0.23519708  0.46900989    -0.06300
C19         C  0.31627697  0.19961129  0.50742110    -0.06100
C20         C  0.28804648  0.28176764  0.46235970    -0.05500
C21         C  0.33084458  0.23548066  0.42679392    -0.06300
C22         C  0.28409614  0.19975070  0.46490404    -0.06100
C23         C  0.26636269  0.32328165  0.45909065    -0.31500
N24         N  0.28296537  0.34762257  0.49918308     0.15000
C25         C  0.31609207  0.32263125  0.52760388    -0.31500
H26         H  0.33520920  0.33315551  0.56217486     0.16900
C27         C  0.34823330  0.25115426  0.39301573    -0.30500
N28         N  0.39108864  0.25776057  0.41218181     0.13700
C29         C  0.40101557  0.24966703  0.45866668    -0.30500
C30         C  0.25629424  0.16432011  0.46441963    -0.30800
N31         N  0.26984371  0.14277420  0.50603339     0.14200
H32         H  0.22856728  0.15492916  0.43565779     0.16800
C33         C  0.30542613  0.16495227  0.53314770    -0.30800
H34         H  0.32169318  0.15697232  0.56913994     0.16800
H35         H  0.43235144  0.25558931  0.48350578     0.16800
H36         H  0.24028234  0.33484989  0.42967936     0.16900
H37         H  0.33056763  0.25943649  0.35735607     0.16800
C38         C  0.03423535  0.47924483  0.32794982    -0.01800
C39         C  0.18849429  0.49012227  0.49817396     0.30700
C40         C  0.25291312  0.49319857  0.58212128     0.30700
C41         C  0.21623536  0.03486335  0.50837832    -0.05500
C42         C  0.17398387  0.48827209  0.54289380    -0.06300
C43         C  0.22369538  0.45210196  0.50616822    -0.06100
C44         C  0.24904976  0.03505510  0.55081101    -0.05500
C45         C  0.20651244  0.48809958  0.58551286    -0.06300
C46         C  0.25554548  0.45302595  0.54897040    -0.06100
C47         C  0.27133358  0.07551245  0.55508019    -0.31500
N48         N  0.25294120  0.10123940  0.51705742     0.15000
C49         C  0.21877022  0.07768723  0.48894919    -0.31500
H50         H  0.19726054  0.09168040  0.45740865     0.16900
C51         C  0.18627938  0.48265249  0.61989721    -0.30500
N52         N  0.14279488  0.48342297  0.59985551     0.13700
C53         C  0.13518182  0.48702930  0.55291559    -0.30500
C54         C  0.28130324  0.41430234  0.55083504    -0.30800
N55         N  0.26674619  0.39062930  0.50989199     0.14200
H56         H  0.30792819  0.40369884  0.58023128     0.16800
C57         C  0.23185313  0.41368995  0.48218330    -0.30800
H58         H  0.21245847  0.40259676  0.44792649     0.16800
H59         H  0.10347744  0.48869595  0.52773769     0.16800
H60         H  0.29927953  0.08498125  0.58354499     0.16900
H61         H  0.20193308  0.47713261  0.65658807     0.16800
In62       In  0.05866077  0.22408516  0.20032990     1.36900
C63         C  0.13166206  0.22525628  0.26968292     0.78300
O64         O  0.06936235  0.29901170  0.20775860    -0.60100
O65         O  0.01425020  0.27261294  0.22283166    -0.51100
C66         C  0.04095175  0.22558476  0.10756311     0.71000
O67         O  0.07905903  0.22296802  0.13446341    -0.45900
C68         C  0.03094756  0.14606807  0.22318418     0.75700
O69         O  0.13170916  0.21975164  0.22769174    -0.57800
O70         O  0.01266549  0.18394397  0.22628928    -0.47900
O71         O  0.09480306  0.22756788  0.27521685    -0.54200
C72         C  0.03844614  0.30656803  0.22452663     0.85800
O73         O  0.01236656  0.22705389  0.12846093    -0.56100
O74         O  0.06055113  0.14753268  0.20378604    -0.59400
In75       In  0.55752590  0.02446689  0.20164199     1.36900
C76         C  0.63162772  0.52980968  0.26863464     0.78300
O77         O  0.56035532  0.10131378  0.20024971    -0.60100
O78         O  0.51662119  0.07065020  0.23150072    -0.51100
C79         C  0.53615449  0.01567371  0.10923822     0.71000
O80         O  0.57458646  0.52034283  0.13472305    -0.45900
C81         C  0.54210767  0.44302771  0.23001654     0.75700
O82         O  0.63070035  0.02798180  0.22604293    -0.57800
O83         O  0.51395929  0.47480674  0.22253453    -0.47900
O84         O  0.59510283  0.52975142  0.27535406    -0.54200
C85         C  0.53502157  0.10677285  0.22482648     0.85800
O86         O  0.50842705  0.01644207  0.13127494    -0.56100
O87         O  0.57533302  0.45158814  0.21813977    -0.59400
C88         C  0.99680525  0.48139216  0.67907958    -0.01800
C89         C  0.84687626  0.52024389  0.51708527     0.30700
C90         C  0.78335978  0.52010148  0.43292659     0.30700
C91         C  0.81755268  0.06308880  0.50676883    -0.05500
C92         C  0.86204140  0.51461050  0.47306227    -0.06300
C93         C  0.81431803  0.48054935  0.50930313    -0.06100
C94         C  0.78620690  0.06330441  0.46381545    -0.05500
C95         C  0.83040111  0.51532051  0.42991281    -0.06300
C96         C  0.78223606  0.48024189  0.46637738    -0.06100
C97         C  0.76535240  0.10545072  0.45940730    -0.31500
N98         N  0.78205556  0.13012040  0.49932026     0.15000
C99         C  0.81404522  0.10453547  0.52857890    -0.31500
H100        H  0.83363942  0.11507809  0.56294954     0.16900
C101        C  0.85206246  0.50554098  0.39692131    -0.30500
N102        N  0.89517715  0.49997829  0.41877605     0.13700
C103        C  0.90050378  0.50262907  0.46525819    -0.30500
C104        C  0.75960612  0.43978462  0.46392145    -0.30800
N105        N  0.77597681  0.41653768  0.50454598     0.14200
H106        H  0.73353581  0.42807395  0.43448092     0.16800
C107        C  0.80977559  0.44078482  0.53209881    -0.30800
H108        H  0.82984098  0.43003746  0.56593798     0.16800
H109        H  0.92982209  0.49380503  0.49192739     0.16800
H110        H  0.73978330  0.11699139  0.42941847     0.16900
H111        H  0.83786271  0.50081719  0.36016839     0.16800
C112        C  0.53432295  0.27581041  0.33468463    -0.01800
C113        C  0.68934788  0.27257087  0.50418820     0.30700
C114        C  0.75429829  0.27145844  0.58748230     0.30700
C115        C  0.71512503  0.31752833  0.51812361    -0.05500
C116        C  0.67651888  0.26035959  0.54795535    -0.06300
C117        C  0.72571515  0.23640160  0.50736599    -0.06100
C118        C  0.74860547  0.31697983  0.56032976    -0.05500
C119        C  0.70884380  0.26177366  0.58991912    -0.06300
C120        C  0.75916350  0.23662736  0.54959489    -0.06100
C121        C  0.77608382  0.35224012  0.55771877    -0.31500
N122        N  0.75887727  0.37594032  0.51760158     0.15000
C123        C  0.72238695  0.35418055  0.49256150    -0.31500
H124        H  0.70359924  0.36266149  0.45735475     0.16900
C125        C  0.69024979  0.25321038  0.62482190    -0.30500
N126        N  0.64780987  0.24459060  0.60461228     0.13700
C127        C  0.63956212  0.24712005  0.55776851    -0.30500
C128        C  0.78521755  0.19888006  0.54892684    -0.30800
N129        N  0.76769718  0.17427797  0.50922365     0.14200
H130        H  0.81345852  0.18860799  0.57656659     0.16800
C131        C  0.73118768  0.19647018  0.48378360    -0.30800
H132        H  0.70864756  0.18294499  0.45234411     0.16800
H133        H  0.60816778  0.24187860  0.53296512     0.16800
H134        H  0.80764951  0.35826802  0.58183823     0.16900
H135        H  0.70602422  0.25443167  0.66207914     0.16800
In136      In  0.97232560  0.23288517  0.81170731     1.36900
C137        C  0.89042424  0.24240456  0.76092506     0.78300
O138        O  0.00251688  0.30340149  0.81652008    -0.60100
O139        O  0.98354828  0.26842975  0.75113269    -0.51100
C140        C  0.99299986  0.23237786  0.90479971     0.71000
O141        O  0.95451429  0.23370251  0.87875047    -0.45900
C142        C  0.99866208  0.15237196  0.78674128     0.75700
O143        O  0.91043276  0.27420152  0.78712842    -0.57800
O144        O  0.01545477  0.18983861  0.78088547    -0.47900
O145        O  0.91033258  0.20455825  0.76616812    -0.54200
C146        C  0.99674065  0.30516368  0.77301220     0.85800
O147        O  0.02086365  0.23241067  0.88293403    -0.56100
O148        O  0.97152452  0.15605495  0.80927410    -0.59400
C149        C  0.79595066  0.22178614  0.65390082    -0.11600
C150        C  0.78689569  0.26652638  0.63611104     0.05500
C151        C  0.80415989  0.30369959  0.66684579    -0.06800
C152        C  0.83684023  0.29511882  0.70877819    -0.07600
C153        C  0.84994384  0.25006528  0.72286308    -0.02100
C154        C  0.82745744  0.21318635  0.69603435     0.04700
N155        N  0.83654419  0.16662762  0.71056483     0.67200
H156        H  0.77848721  0.19277334  0.63472563     0.16100
H157        H  0.85189483  0.32387733  0.73060881     0.15800
N158        N  0.78557565  0.34891806  0.65945524     0.74900
O159        O  0.81673602  0.14906062  0.73646720    -0.38600
O160        O  0.85730928  0.14091904  0.69034411    -0.38500
O161        O  0.74591831  0.35438448  0.65519526    -0.39200
O162        O  0.80971605  0.38357803  0.66762177    -0.39500
C163        C  0.65403343  0.26183959  0.41607745    -0.11600
C164        C  0.65067332  0.27637758  0.45970734     0.05500
C165        C  0.61003870  0.29407044  0.46109505    -0.06800
C166        C  0.57325446  0.28445908  0.42397880    -0.07600
C167        C  0.57561055  0.27301281  0.37893870    -0.02100
C168        C  0.61807543  0.26233475  0.37575540     0.04700
N169        N  0.62576369  0.25131958  0.33220993     0.67200
H170        H  0.68522226  0.25216866  0.41246936     0.16100
H171        H  0.54311238  0.28903087  0.43112522     0.15800
N172        N  0.60525479  0.32325807  0.49869514     0.74900
O173        O  0.63569413  0.28297240  0.30909404    -0.38600
O174        O  0.63437879  0.21023075  0.32388838    -0.38500
O175        O  0.63268371  0.35389935  0.51589337    -0.39200
O176        O  0.57043865  0.32362160  0.50953817    -0.39300
C177        C  0.01231367  0.06607903  0.69732201    -0.11600
C178        C  0.00280012  0.02339591  0.71433201     0.05500
C179        C  0.99720151  0.02449834  0.76016923    -0.06800
C180        C  0.99819465  0.06677700  0.78397535    -0.07600
C181        C  0.00637944  0.10824523  0.76521990    -0.02100
C182        C  0.01533767  0.10721677  0.72227590     0.04700
N183        N  0.02534339  0.14814075  0.70195177     0.67200
H184        H  0.01834246  0.06790031  0.66386829     0.16100
H185        H  0.99137994  0.06722890  0.81729606     0.15800
N186        N  0.98916010  0.98469161  0.78362996     0.74900
O187        O  0.06414793  0.16043699  0.71129361    -0.38600
O188        O  0.99720458  0.16638133  0.66826644    -0.38500
O189        O  0.01770841  0.97239315  0.82024369    -0.39200
O190        O  0.95076105  0.97299482  0.77854384    -0.39300
C191        C  0.03001665  0.42110840  0.73933117    -0.11600
C192        C  0.99418832  0.43339209  0.70080917     0.05500
C193        C  0.96211506  0.39846563  0.68355545    -0.06800
C194        C  0.96534243  0.35707840  0.70770297    -0.07600
C195        C  0.99900659  0.34791722  0.74806653    -0.02100
C196        C  0.03183324  0.38012408  0.76380998     0.04700
N197        N  0.06771746  0.37141281  0.80396965     0.67200
H198        H  0.05627902  0.44495050  0.75230524     0.16100
H199        H  0.94033757  0.33167840  0.69479191     0.15800
N200        N  0.92686750  0.40138232  0.64132148     0.74900
O201        O  0.10307211  0.35762565  0.79871947    -0.38600
O202        O  0.06644948  0.38510939  0.84370367    -0.38500
O203        O  0.93162518  0.38315574  0.60475849    -0.39200
O204        O  0.88917018  0.40143747  0.64505336    -0.39300
C205        C  0.87735818  0.50602444  0.60455868    -0.11600
C206        C  0.88347035  0.52183585  0.56311990     0.05500
C207        C  0.92506092  0.53837897  0.56619720    -0.06800
C208        C  0.96040256  0.51973331  0.60026987    -0.07600
C209        C  0.95550020  0.49604490  0.63919954    -0.02100
C210        C  0.91287502  0.49811997  0.64408730     0.04700
N211        N  0.90507962  0.49942338  0.68862644     0.67200
H212        H  0.84494803  0.50246885  0.60712592     0.16100
H213        H  0.99210814  0.52750925  0.59794955     0.15800
N214        N  0.93198751  0.07607445  0.53845332     0.74900
O215        O  0.88149686  0.96928968  0.69813927    -0.38600
O216        O  0.90692057  0.53808519  0.70870120    -0.38500
O217        O  0.90110083  0.10210368  0.51768606    -0.39200
O218        O  0.96982582  0.58979256  0.54340921    -0.39300
C219        C  0.50330964  0.37269309  0.24099277    -0.11600
C220        C  0.53926137  0.40101007  0.25540052     0.05500
C221        C  0.57226977  0.39036935  0.29619561    -0.06800
C222        C  0.56946792  0.35154743  0.32152685    -0.07600
C223        C  0.53509586  0.32024657  0.30630366    -0.02100
C224        C  0.50080005  0.33257402  0.26554186     0.04700
N225        N  0.46264256  0.30564927  0.24882420     0.67200
H226        H  0.47713009  0.38151857  0.21025660     0.16100
H227        H  0.59503615  0.34709376  0.35367188     0.15800
N228        N  0.60780858  0.42052000  0.31448248     0.74900
O229        O  0.42923426  0.31828652  0.25929025    -0.38600
O230        O  0.45827463  0.28032618  0.21321147    -0.38500
O231        O  0.60993942  0.44320082  0.35127808    -0.39200
O232        O  0.64127021  0.41549872  0.30151064    -0.39300
C233        C  0.53993721  0.23290038  0.25964828    -0.11600
C234        C  0.53610510  0.23117538  0.30551712     0.05500
C235        C  0.53469842  0.18662483  0.32440002    -0.06800
C236        C  0.53081810  0.14749878  0.29586875    -0.07600
C237        C  0.53211671  0.15023977  0.24972467    -0.02100
C238        C  0.53798926  0.19327168  0.23207428     0.04700
N239        N  0.54180899  0.19747883  0.18601925     0.67200
H240        H  0.54533504  0.26487557  0.24459603     0.16100
H241        H  0.52915556  0.11420079  0.31094967     0.15800
N242        N  0.53685028  0.18018717  0.37239358     0.74900
O243        O  0.50839180  0.20446323  0.15227358    -0.38600
O244        O  0.57849260  0.20342100  0.18060192    -0.38500
O245        O  0.50460705  0.16401586  0.38197824    -0.39200
O246        O  0.57344183  0.17644542  0.40221571    -0.39300
C247        C  0.66631891  0.02718817  0.35358137    -0.11600
C248        C  0.67126996  0.53001835  0.30880136     0.05500
C249        C  0.71313678  0.53240826  0.30444876    -0.06800
C250        C  0.74896930  0.53041527  0.34452077    -0.07600
C251        C  0.74423576  0.52293500  0.38920574    -0.02100
C252        C  0.70164669  0.02318388  0.39330319     0.04700
N253        N  0.69292385  0.02092069  0.43745038     0.67200
H254        H  0.63448588  0.02784650  0.35819642     0.16100
H255        H  0.77937483  0.53723801  0.34008011     0.15800
N256        N  0.72008346  0.53865158  0.26001718     0.74900
O257        O  0.68834901  0.05796245  0.45795428    -0.38600
O258        O  0.67520537  0.48533636  0.44653658    -0.38500
O259        O  0.72611716  0.07857290  0.24743501    -0.39200
O260        O  0.72829232  0.50423062  0.23785970    -0.39300
C261        C  0.04852536  0.23329581  0.98294842    -0.11600
C262        C  0.00483772  0.23058179  0.95665842     0.05500
C263        C  0.97360070  0.22557599  0.98058311    -0.06800
C264        C  0.98630355  0.22394675  0.02942476    -0.07600
C265        C  0.02988988  0.22690319  0.05576510    -0.02100
C266        C  0.06126311  0.23145915  0.03191625     0.04700
N267        N  0.10611234  0.23491813  0.05665865     0.67200
H268        H  0.07313390  0.23702471  0.96545675     0.16100
H269        H  0.96162041  0.22009107  0.04680011     0.15800
N270        N  0.92879636  0.22134356  0.95600369     0.74900
O271        O  0.12987448  0.19950881  0.06171855    -0.38600
O272        O  0.12324940  0.27400802  0.06449748    -0.38500
O273        O  0.91230460  0.18193889  0.94825743    -0.39200
O274        O  0.90448749  0.25631697  0.95093019    -0.39300
C275        C  0.07310109  0.95319747  0.60143558    -0.11600
C276        C  0.10960324  0.47908290  0.62292940     0.05500
C277        C  0.11232072  0.50001682  0.66641719    -0.06800
C278        C  0.07751706  0.49756449  0.68516888    -0.07600
C279        C  0.03791043  0.47653690  0.66073848    -0.02100
C280        C  0.03838153  0.95049897  0.62011536     0.04700
N281        N  0.00486709  0.41976891  0.59729813     0.67200
H282        H  0.07157919  0.93420919  0.56962744     0.16100
H283        H  0.08170258  0.51369715  0.71893032     0.15800
N284        N  0.14903032  0.52613248  0.69116468     0.74900
O285        O  0.97776154  0.93243475  0.55978783    -0.38600
O286        O  0.01268838  0.37732536  0.60337074    -0.38500
O287        O  0.15251575  0.06674884  0.67881248    -0.39200
O288        O  0.17123427  0.51330668  0.73119605    -0.39300
C289        C  0.02193581  0.06449032  0.31504628    -0.11600
C290        C  0.02574184  0.02113349  0.29444661     0.05500
C291        C  0.01973492  0.02054448  0.24480201    -0.06800
C292        C  0.02102881  0.06201317  0.22205306    -0.07600
C293        C  0.02190964  0.10416015  0.24491950    -0.02100
C294        C  0.01911480  0.10535320  0.29070915     0.04700
N295        N  0.01760332  0.14795671  0.31463142     0.67200
H296        H  0.02392572  0.06723551  0.35165598     0.16100
H297        H  0.02005564  0.06141572  0.18556755     0.15800
N298        N  0.00900404  0.98035831  0.21541206     0.74900
O299        O  0.98216783  0.16233360  0.31919968    -0.38600
O300        O  0.05220327  0.16705949  0.33753032    -0.38500
O301        O  0.97079065  0.96607429  0.20417395    -0.39200
O302        O  0.03113361  0.97065437  0.18818986    -0.39300
C303        C  0.06612681  0.38329677  0.25213812    -0.11600
C304        C  0.03444756  0.35035722  0.24855810     0.05500
C305        C  0.00521408  0.35681709  0.27478404    -0.06800
C306        C  0.00701346  0.39675334  0.30191682    -0.07600
C307        C  0.03599250  0.43265097  0.30200715    -0.02100
C308        C  0.06845074  0.42281784  0.27959541     0.04700
N309        N  0.10537449  0.45101993  0.28533087     0.67200
H310        H  0.09095681  0.37758463  0.23504320     0.16100
H311        H  0.98561880  0.39849048  0.32342812     0.15800
N312        N  0.97436539  0.32256669  0.27571177     0.74900
O313        O  0.13897778  0.44128741  0.31791934    -0.38600
O314        O  0.10984338  0.47104748  0.25000472    -0.38500
O315        O  0.98051746  0.29742870  0.31107349    -0.39200
O316        O  0.93805411  0.32269400  0.24507364    -0.39300
C317        C  0.08659785  0.44641887  0.40170937    -0.11600
C318        C  0.07911802  0.48121405  0.36761456     0.05500
C319        C  0.11278471  0.01427834  0.37407381    -0.06800
C320        C  0.14885104  0.01271589  0.41402474    -0.07600
C321        C  0.15171881  0.48360475  0.45168970    -0.02100
C322        C  0.12037080  0.44802119  0.44396713     0.04700
N323        N  0.11974230  0.41459671  0.47880551     0.67200
H324        H  0.06317519  0.41924937  0.39710505     0.16100
H325        H  0.17535875  0.03437190  0.41432524     0.15800
N326        N  0.11297502  0.04956325  0.34136064     0.74900
O327        O  0.08409723  0.40224510  0.48352843    -0.38600
O328        O  0.15346172  0.39314775  0.50077570    -0.38500
O329        O  0.13100319  0.04137845  0.31010491    -0.39200
O330        O  0.11175117  0.09073831  0.35471780    -0.39300
C331        C  0.91981123  0.97924155  0.35001640    -0.11600
C332        C  0.92946207  0.49319141  0.39690328     0.05500
C333        C  0.97290908  0.50411923  0.42029336    -0.06800
C334        C  0.00498059  0.49712281  0.39845411    -0.07600
C335        C  0.99626993  0.48196723  0.35150416    -0.02100
C336        C  0.95156022  0.97684352  0.32663275     0.04700
N337        N  0.93653847  0.97346262  0.27698360     0.67200
H338        H  0.88683318  0.97260433  0.32990588     0.16100
H339        H  0.03661107  0.50890280  0.41815780     0.15800
N340        N  0.98479024  0.52955469  0.46312414     0.74900
O341        O  0.91985478  0.93625958  0.25852919    -0.38600
O342        O  0.92492873  0.01017821  0.25462768    -0.38500
O343        O  0.00872004  0.51061140  0.49936684    -0.39200
O344        O  0.98390023  0.57281685  0.46093414    -0.39300
C345        C  0.44683419  0.30734731  0.39665769    -0.11600
C346        C  0.42129561  0.26778534  0.38679603     0.05500
C347        C  0.42476602  0.23874399  0.35024391    -0.06800
C348        C  0.45855571  0.24426380  0.33098227    -0.07600
C349        C  0.49056966  0.27801082  0.34776855    -0.02100
C350        C  0.47886435  0.31454806  0.37424170     0.04700
N351        N  0.49721502  0.35934872  0.37657470     0.67200
H352        H  0.44095689  0.33316384  0.42053083     0.16100
H353        H  0.45929057  0.22095547  0.30287882     0.15800
N354        N  0.39480924  0.20260728  0.33269184     0.74900
O355        O  0.47722605  0.38939671  0.34811345    -0.38600
O356        O  0.52703776  0.37188071  0.41204851    -0.38500
O357        O  0.37302285  0.20244025  0.29014212    -0.39200
O358        O  0.39698487  0.16665341  0.35629976    -0.39300
C359        C  0.20641168  0.25244566  0.38984692    -0.11600
C360        C  0.24640676  0.23541491  0.38715919     0.05500
C361        C  0.24689156  0.21024167  0.34622037    -0.06800
C362        C  0.20980769  0.20948994  0.30736962    -0.07600
C363        C  0.17100237  0.22948998  0.30968546    -0.02100
C364        C  0.16947439  0.25087834  0.35170613     0.04700
N365        N  0.13075188  0.27186555  0.35628541     0.67200
H366        H  0.20318984  0.26645625  0.42228600     0.16100
H367        H  0.21052380  0.19044685  0.27624072     0.15800
N368        N  0.28238982  0.18096446  0.34492407     0.74900
O369        O  0.10886238  0.25148670  0.37832013    -0.38600
O370        O  0.12314446  0.31371730  0.34636964    -0.38500
O371        O  0.29342280  0.14850713  0.37361655    -0.39200
O372        O  0.29520525  0.18028630  0.30903977    -0.39300
C373        C  0.44329173  0.20122869  0.62426431    -0.11600
C374        C  0.46437368  0.24332827  0.64031939     0.05500
C375        C  0.45006434  0.28131212  0.60981899    -0.06800
C376        C  0.41249279  0.27869926  0.57183503    -0.07600
C377        C  0.38943864  0.23789213  0.55883264    -0.02100
C378        C  0.40874221  0.19758010  0.58279174     0.04700
N379        N  0.39856272  0.15260587  0.56268806     0.67200
H380        H  0.45637342  0.16947800  0.64118438     0.16100
H381        H  0.40297353  0.30876941  0.55024467     0.15800
N382        N  0.47411642  0.32253277  0.61457430     0.74900
O383        O  0.39651692  0.11930234  0.58847081    -0.38600
O384        O  0.40110060  0.14435048  0.52209815    -0.38500
O385        O  0.49947379  0.32635913  0.58998399    -0.39200
O386        O  0.45869449  0.35867420  0.62747127    -0.39300
C387        C  0.54818277  0.21400051  0.63489693    -0.11600
C388        C  0.54437409  0.24967071  0.66630689     0.05500
C389        C  0.57610056  0.28545357  0.67484603    -0.06800
C390        C  0.61143337  0.28057559  0.65695696    -0.07600
C391        C  0.61492503  0.24388321  0.62771654    -0.02100
C392        C  0.58240521  0.21103264  0.61577022     0.04700
N393        N  0.58431740  0.17349235  0.58512155     0.67200
H394        H  0.52511595  0.18640216  0.62644048     0.16100
H395        H  0.63507447  0.30769229  0.66314618     0.15800
N396        N  0.57277247  0.32855511  0.69757166     0.74900
O397        O  0.60703877  0.13853564  0.60104739    -0.38600
O398        O  0.55768716  0.17176171  0.54479320    -0.38500
O399        O  0.60534224  0.34310881  0.72891257    -0.39200
O400        O  0.54514110  0.35781568  0.67660044    -0.39300
C401        C  0.45989335  0.30848545  0.71260713    -0.11600
C402        C  0.50010255  0.28564000  0.71975169     0.05500
C403        C  0.53272499  0.29750004  0.76207162    -0.06800
C404        C  0.52925421  0.33873851  0.78571450    -0.07600
C405        C  0.49089785  0.36415219  0.77377500    -0.02100
C406        C  0.45492884  0.34659234  0.73941290     0.04700
N407        N  0.41308442  0.36732011  0.73071672     0.67200
H408        H  0.43113445  0.29656933  0.68676396     0.16100
H409        H  0.55589034  0.34974349  0.81509154     0.15800
N410        N  0.56755654  0.26709120  0.78401564     0.74900
O411        O  0.39565195  0.38620695  0.69201048    -0.38600
O412        O  0.39003926  0.35720718  0.75644728    -0.38500
O413        O  0.60576298  0.28135517  0.79346716    -0.39200
O414        O  0.56000257  0.23548002  0.80879789    -0.39300
C415        C  0.53822465  0.12969016  0.75604308    -0.11600
C416        C  0.50006972  0.12066219  0.76674806     0.05500
C417        C  0.46554979  0.15228536  0.75279966    -0.06800
C418        C  0.47013047  0.19225275  0.72970138    -0.07600
C419        C  0.50738363  0.20119566  0.71592441    -0.02100
C420        C  0.54273786  0.16892340  0.73113197     0.04700
N421        N  0.58411360  0.17465549  0.72398186     0.67200
H422        H  0.56514602  0.10577593  0.76705835     0.16100
H423        H  0.44254533  0.21531480  0.71932655     0.15800
N424        N  0.42397502  0.14234349  0.75749681     0.74900
O425        O  0.61262300  0.19670794  0.75409565    -0.38600
O426        O  0.59648894  0.14495273  0.69946661    -0.38500
O427        O  0.40956473  0.16566831  0.78555684    -0.39200
O428        O  0.39875737  0.11673640  0.72756673    -0.39300
C429        C  0.47407799  0.49785784  0.98057768    -0.11600
C430        C  0.50723428  0.00130775  0.95947066     0.05500
C431        C  0.54993022  0.00803423  0.98822774    -0.06800
C432        C  0.55830391  0.01268760  0.03662373    -0.07600
C433        C  0.52511709  0.00992483  0.05774617    -0.02100
C434        C  0.48260738  0.50160143  0.02913249     0.04700
N435        N  0.44778014  0.49597224  0.04863552     0.67200
H436        H  0.44117448  0.49198925  0.95933965     0.16100
H437        H  0.59125413  0.01842304  0.05779742     0.15800
N438        N  0.58533658  0.01025827  0.96912076     0.74900
O439        O  0.42216211  0.02903232  0.04817431    -0.38600
O440        O  0.43735531  0.45603424  0.05670725    -0.38500
O441        O  0.60195436  0.04861878  0.96628180    -0.39200
O442        O  0.60538756  0.47379848  0.96464889    -0.39300
C443        C  0.32704969  0.01387639  0.70838595    -0.11600
C444        C  0.36720705  0.50196434  0.70289582     0.05500
C445        C  0.37029623  0.49361299  0.65754909    -0.06800
C446        C  0.33284573  0.49039065  0.62017833    -0.07600
C447        C  0.29165333  0.49766714  0.62594616    -0.02100
C448        C  0.28991187  0.01606731  0.66968671     0.04700
N449        N  0.25397988  0.04309103  0.67439714     0.67200
H450        H  0.32529641  0.02511194  0.74241611     0.16100
H451        H  0.33627361  0.48384440  0.58576957     0.15800
N452        N  0.41112261  0.49079202  0.64832182     0.74900
O453        O  0.24714243  0.04649682  0.71367729    -0.38600
O454        O  0.23552704  0.07132798  0.64305575    -0.38500
O455        O  0.42506897  0.45274432  0.63777753    -0.39200
O456        O  0.43174436  0.02699819  0.64728397    -0.39300
In457      In  0.47569432  0.49598255  0.81528985     1.36900
C458        C  0.40559097  0.99988232  0.74419641     0.78300
O459        O  0.46611574  0.57132049  0.80852439    -0.60100
O460        O  0.51866369  0.54159181  0.78881156    -0.51100
C461        C  0.49613707  0.49889243  0.90772608     0.71000
O462        O  0.45755718  0.99751875  0.88174827    -0.45900
C463        C  0.48887071  0.90977511  0.79491858     0.75700
O464        O  0.40395875  0.50417361  0.78588861    -0.57800
O465        O  0.51736497  0.94007311  0.79826335    -0.47900
O466        O  0.44282113  0.99311858  0.74021338    -0.54200
C467        C  0.49551081  0.57695395  0.78945710     0.85800
O468        O  0.52413609  0.49849818  0.88601072    -0.56100
O469        O  0.45642975  0.92283563  0.80693920    -0.59400
C470        C  0.50501708  0.74564675  0.68596537    -0.01800
C471        C  0.35034440  0.73808950  0.51424692     0.30700
C472        C  0.28496565  0.73833388  0.43133609     0.30700
C473        C  0.32057099  0.78158529  0.50506771    -0.05500
C474        C  0.36430023  0.73519715  0.46903609    -0.06300
C475        C  0.31627053  0.69960975  0.50744284    -0.06100
C476        C  0.28804553  0.78176928  0.46238484    -0.05500
C477        C  0.33084347  0.73548195  0.42682031    -0.06300
C478        C  0.28409122  0.69975302  0.46492406    -0.06100
C479        C  0.26636935  0.82328782  0.45911368    -0.31500
N480        N  0.28297114  0.84762609  0.49920769     0.15000
C481        C  0.31609271  0.82263058  0.52763082    -0.31500
H482        H  0.33520985  0.83315338  0.56220235     0.16900
C483        C  0.34823274  0.75114806  0.39304062    -0.30500
N484        N  0.39108839  0.75775193  0.41220676     0.13700
C485        C  0.40101459  0.74966161  0.45869239    -0.30500
C486        C  0.25628660  0.66432417  0.46443318    -0.30800
N487        N  0.26983196  0.64277375  0.50604368     0.14200
H488        H  0.22856032  0.65493614  0.43566739     0.16800
C489        C  0.30541462  0.66494851  0.53316393    -0.30800
H490        H  0.32167720  0.65696511  0.56915501     0.16800
H491        H  0.43235110  0.75558174  0.48353101     0.16800
H492        H  0.24029704  0.83486339  0.42969842     0.16900
H493        H  0.33056736  0.75942487  0.35737927     0.16800
C494        C  0.03424719  0.97923715  0.32797164    -0.01800
C495        C  0.18850587  0.99012886  0.49819077     0.30700
C496        C  0.25292547  0.99321011  0.58213662     0.30700
C497        C  0.21622302  0.53485781  0.50836703    -0.05500
C498        C  0.17399595  0.98828553  0.54291073    -0.06300
C499        C  0.22370579  0.95210815  0.50618800    -0.06100
C500        C  0.24903658  0.53504576  0.55079988    -0.05500
C501        C  0.20652494  0.98811370  0.58552903    -0.06300
C502        C  0.25555638  0.95303433  0.54898931    -0.06100
C503        C  0.27131972  0.57550361  0.55507658    -0.31500
N504        N  0.25292840  0.60123606  0.51705906     0.15000
C505        C  0.21875795  0.57768619  0.48894509    -0.31500
H506        H  0.19725003  0.59168370  0.45740823     0.16900
C507        C  0.18629306  0.98266105  0.61991327    -0.30500
N508        N  0.14280858  0.98343076  0.59987278     0.13700
C509        C  0.13519446  0.98704108  0.55293313    -0.30500
C510        C  0.28131372  0.91431013  0.55085597    -0.30800
N511        N  0.26675494  0.89063477  0.50991464     0.14200
H512        H  0.30793943  0.90370787  0.58025203     0.16800
C513        C  0.23186176  0.91369441  0.48220543    -0.30800
H514        H  0.21246549  0.90259932  0.44795004     0.16800
H515        H  0.10348988  0.98870632  0.52775556     0.16800
H516        H  0.29926557  0.58496982  0.58354463     0.16900
H517        H  0.20194780  0.97713366  0.65660245     0.16800
In518      In  0.05868736  0.72408309  0.20033245     1.36900
C519        C  0.13168870  0.72524342  0.26968264     0.78300
O520        O  0.06936948  0.79901397  0.20776069    -0.60100
O521        O  0.01428112  0.77259512  0.22286528    -0.51100
C522        C  0.04098236  0.72558640  0.10756778     0.71000
O523        O  0.07909093  0.72299339  0.13446821    -0.45900
C524        C  0.03095978  0.64606654  0.22316520     0.75700
O525        O  0.13173758  0.71974900  0.22769122    -0.57800
O526        O  0.01267100  0.68394152  0.22625597    -0.47900
O527        O  0.09482962  0.72754396  0.27521697    -0.54200
C528        C  0.03846312  0.80655891  0.22454681     0.85800
O529        O  0.01239619  0.72703314  0.12846434    -0.56100
O530        O  0.06058167  0.64753137  0.20379273    -0.59400
In531      In  0.55751102  0.52447197  0.20161121     1.36900
C532        C  0.63164338  0.02980503  0.26866415     0.78300
O533        O  0.56033899  0.60132105  0.20022557    -0.60100
O534        O  0.51659543  0.57065164  0.23145993    -0.51100
C535        C  0.53613938  0.51568095  0.10920675     0.71000
O536        O  0.57460204  0.02033261  0.13475427    -0.45900
C537        C  0.54210572  0.94302899  0.23004198     0.75700
O538        O  0.63068540  0.52798688  0.22601432    -0.57800
O539        O  0.51396086  0.97481158  0.22255494    -0.47900
O540        O  0.59511870  0.02974055  0.27538420    -0.54200
C541        C  0.53499687  0.60677663  0.22479333     0.85800
O542        O  0.50841201  0.51644530  0.13124364    -0.56100
O543        O  0.57533664  0.95158337  0.21817322    -0.59400
C544        C  0.99682194  0.98138820  0.67909585    -0.01800
C545        C  0.84688945  0.02026440  0.51711462     0.30700
C546        C  0.78337855  0.02013169  0.43295223     0.30700
C547        C  0.81753271  0.56306261  0.50674019    -0.05500
C548        C  0.86205653  0.01462630  0.47309118    -0.06300
C549        C  0.81432464  0.98057614  0.50932933    -0.06100
C550        C  0.78618467  0.56327395  0.46378817    -0.05500
C551        C  0.83041886  0.01534105  0.42994386    -0.06300
C552        C  0.78224531  0.98027383  0.46640233    -0.06100
C553        C  0.76533050  0.60542130  0.45937750    -0.31500
N554        N  0.78203825  0.63009536  0.49928677     0.15000
C555        C  0.81402836  0.60451184  0.52854597    -0.31500
H556        H  0.83362791  0.61505858  0.56291311     0.16900
C557        C  0.85206861  0.00555041  0.39693268    -0.30500
N558        N  0.89519569  0.99998048  0.41880972     0.13700
C559        C  0.90051599  0.00263501  0.46528554    -0.30500
C560        C  0.75961596  0.93981571  0.46393477    -0.30800
N561        N  0.77598293  0.91656236  0.50455487     0.14200
H562        H  0.73355012  0.92810749  0.43448776     0.16800
C563        C  0.80977973  0.94080676  0.53211610    -0.30800
H564        H  0.82984522  0.93005174  0.56595184     0.16800
H565        H  0.92984361  0.99380396  0.49196604     0.16800
H566        H  0.73976147  0.61696132  0.42938841     0.16900
H567        H  0.83791973  0.00083026  0.36027751     0.16800
C568        C  0.53430606  0.77579892  0.33468069    -0.01800
C569        C  0.68935999  0.77257144  0.50415213     0.30700
C570        C  0.75431333  0.77144798  0.58744647     0.30700
C571        C  0.71514990  0.81752173  0.51808714    -0.05500
C572        C  0.67653076  0.76036999  0.54792182    -0.06300
C573        C  0.72571768  0.73639068  0.50732985    -0.06100
C574        C  0.74862930  0.81696685  0.56029282    -0.05500
C575        C  0.70885734  0.76177742  0.58988520    -0.06300
C576        C  0.75916835  0.73661252  0.54955724    -0.06100
C577        C  0.77609843  0.85224187  0.55770251    -0.31500
N578        N  0.75888912  0.87595331  0.51759328     0.15000
C579        C  0.72240345  0.85419110  0.49254143    -0.31500
H580        H  0.70361165  0.86268602  0.45734016     0.16900
C581        C  0.69026249  0.75322305  0.62478902    -0.30500
N582        N  0.64782021  0.74461525  0.60458022     0.13700
C583        C  0.63957159  0.74714352  0.55773664    -0.30500
C584        C  0.78521708  0.69886200  0.54888548    -0.30800
N585        N  0.76768851  0.67425834  0.50918569     0.14200
H586        H  0.81346134  0.68858934  0.57652045     0.16800
C587        C  0.73118118  0.69645537  0.48374772    -0.30800
H588        H  0.70863703  0.68293148  0.45231027     0.16800
H589        H  0.60817569  0.74190801  0.53293459     0.16800
H590        H  0.80765878  0.85827536  0.58183089     0.16900
H591        H  0.70603846  0.75444035  0.66204605     0.16800
In592      In  0.97232741  0.73287293  0.81171408     1.36900
C593        C  0.89043277  0.74238730  0.76090029     0.78300
O594        O  0.00248219  0.80340976  0.81654058    -0.60100
O595        O  0.98359542  0.76841983  0.75116081    -0.51100
C596        C  0.99300926  0.73234964  0.90480533     0.71000
O597        O  0.95452098  0.73365381  0.87876034    -0.45900
C598        C  0.99866654  0.65235326  0.78676567     0.75700
O599        O  0.91042243  0.77417637  0.78713141    -0.57800
O600        O  0.01546908  0.68981756  0.78091947    -0.47900
O601        O  0.91035421  0.70454962  0.76612890    -0.54200
C602        C  0.99674748  0.80516482  0.77303983     0.85800
O603        O  0.02086955  0.73241071  0.88293612    -0.56100
O604        O  0.97151687  0.65604136  0.80928315    -0.59400
C605        C  0.79597501  0.72177094  0.65385686    -0.11600
C606        C  0.78691243  0.76651275  0.63607464     0.05500
C607        C  0.80416513  0.80368315  0.66681944    -0.06800
C608        C  0.83684339  0.79510110  0.70875427    -0.07600
C609        C  0.84995779  0.75004759  0.72282941    -0.02100
C610        C  0.82748503  0.71316875  0.69598698     0.04700
N611        N  0.83659138  0.66660690  0.71049780     0.67200
H612        H  0.77851524  0.69275776  0.63467905     0.16100
H613        H  0.85188807  0.82385807  0.73059400     0.15800
N614        N  0.78557213  0.84889825  0.65943464     0.74900
O615        O  0.81680319  0.64901612  0.73640695    -0.38600
O616        O  0.85735459  0.64091959  0.69025586    -0.38500
O617        O  0.74591141  0.85435327  0.65516278    -0.39200
O618        O  0.80970547  0.88356396  0.66761455    -0.39500
C619        C  0.65402853  0.76182539  0.41604309    -0.11600
C620        C  0.65068193  0.77638066  0.45967359     0.05500
C621        C  0.61005115  0.79407817  0.46106855    -0.06800
C622        C  0.57325906  0.78444918  0.42396846    -0.07600
C623        C  0.57560097  0.77299210  0.37892595    -0.02100
C624        C  0.61806142  0.76231289  0.37572916     0.04700
N625        N  0.62573630  0.75129475  0.33217768     0.67200
H626        H  0.68521340  0.75214948  0.41242709     0.16100
H627        H  0.54312210  0.78901990  0.43112652     0.15800
N628        N  0.60527887  0.82328467  0.49866076     0.74900
O629        O  0.63563295  0.78294948  0.30903933    -0.38600
O630        O  0.63436395  0.71020870  0.32386055    -0.38500
O631        O  0.63271427  0.85392450  0.51584199    -0.39200
O632        O  0.57046662  0.82366533  0.50951187    -0.39300
C633        C  0.01230382  0.56607712  0.69732876    -0.11600
C634        C  0.00278124  0.52339142  0.71432462     0.05500
C635        C  0.99717493  0.52448283  0.76015914    -0.06800
C636        C  0.99817330  0.56675608  0.78397716    -0.07600
C637        C  0.00638169  0.60822620  0.76524162    -0.02100
C638        C  0.01535177  0.60720434  0.72230389     0.04700
N639        N  0.02540832  0.64812520  0.70201478     0.67200
H640        H  0.01833261  0.56790555  0.66387514     0.16100
H641        H  0.99134698  0.56720235  0.81729171     0.15800
N642        N  0.98911738  0.48467091  0.78360294     0.74900
O643        O  0.06422010  0.66041858  0.71144173    -0.38600
O644        O  0.99731824  0.66637459  0.66829300    -0.38500
O645        O  0.01765291  0.47236059  0.82022153    -0.39200
O646        O  0.95071435  0.47297471  0.77849409    -0.39300
C647        C  0.03002839  0.92110660  0.73935481    -0.11600
C648        C  0.99420197  0.93339052  0.70083097     0.05500
C649        C  0.96212712  0.89846440  0.68357858    -0.06800
C650        C  0.96534805  0.85708168  0.70773297    -0.07600
C651        C  0.99901190  0.84792020  0.74809615    -0.02100
C652        C  0.03184166  0.88012405  0.76383641     0.04700
N653        N  0.06772935  0.87140757  0.80399096     0.67200
H654        H  0.05629383  0.94494554  0.75232570     0.16100
H655        H  0.94034276  0.83168184  0.69482309     0.15800
N656        N  0.92689367  0.90136938  0.64133048     0.74900
O657        O  0.10307094  0.85758538  0.79873311    -0.38600
O658        O  0.06648130  0.88513003  0.84372391    -0.38500
O659        O  0.93166491  0.88310874  0.60478851    -0.39200
O660        O  0.88918891  0.90144379  0.64504181    -0.39300
C661        C  0.87737360  0.00603080  0.60458784    -0.11600
C662        C  0.88348313  0.02185004  0.56314996     0.05500
C663        C  0.92507483  0.03838644  0.56622441    -0.06800
C664        C  0.96041577  0.01972854  0.60028744    -0.07600
C665        C  0.95551567  0.99603802  0.63921703    -0.02100
C666        C  0.91289331  0.99811583  0.64411157     0.04700
N667        N  0.90510614  0.99941039  0.68865526     0.67200
H668        H  0.84496459  0.00247576  0.60715847     0.16100
H669        H  0.99212045  0.02749716  0.59796015     0.15800
N670        N  0.93197036  0.57606563  0.53842283     0.74900
O671        O  0.88144084  0.46932504  0.69809517    -0.38600
O672        O  0.90692664  0.03807184  0.70872683    -0.38500
O673        O  0.90108074  0.60208901  0.51765048    -0.39200
O674        O  0.96984450  0.08979573  0.54343816    -0.39300
C675        C  0.50329464  0.87270182  0.24101162    -0.11600
C676        C  0.53925008  0.90101350  0.25542333     0.05500
C677        C  0.57225605  0.89036767  0.29621822    -0.06800
C678        C  0.56945285  0.85154026  0.32153998    -0.07600
C679        C  0.53507913  0.82024166  0.30630994    -0.02100
C680        C  0.50078113  0.83257987  0.26555468     0.04700
N681        N  0.46261732  0.80566440  0.24883946     0.67200
H682        H  0.47711547  0.88153383  0.21027755     0.16100
H683        H  0.59502147  0.84708133  0.35368374     0.15800
N684        N  0.60779445  0.92051744  0.31451344     0.74900
O685        O  0.42921661  0.81830392  0.25931965    -0.38600
O686        O  0.45823635  0.78034888  0.21321926    -0.38500
O687        O  0.60991602  0.94320280  0.35130420    -0.39200
O688        O  0.64126205  0.91549371  0.30155303    -0.39300
C689        C  0.53990086  0.73290196  0.25962849    -0.11600
C690        C  0.53607698  0.73116890  0.30550055     0.05500
C691        C  0.53466912  0.68661463  0.32437534    -0.06800
C692        C  0.53078787  0.64749308  0.29583768    -0.07600
C693        C  0.53208578  0.65024100  0.24969404    -0.02100
C694        C  0.53795248  0.69327709  0.23204800     0.04700
N695        N  0.54176604  0.69749240  0.18599123     0.67200
H696        H  0.54529486  0.76488040  0.24457951     0.16100
H697        H  0.52912654  0.61419242  0.31091393     0.15800
N698        N  0.53681914  0.68016821  0.37236714     0.74900
O699        O  0.50834593  0.70448384  0.15225107    -0.38600
O700        O  0.57844736  0.70343881  0.18056949    -0.38500
O701        O  0.50457788  0.66398461  0.38194622    -0.39200
O702        O  0.57341003  0.67643032  0.40219106    -0.39300
C703        C  0.66630832  0.52718218  0.35355205    -0.11600
C704        C  0.67128968  0.03002412  0.30882969     0.05500
C705        C  0.71314628  0.03243051  0.30447700    -0.06800
C706        C  0.74902164  0.03045285  0.34454543    -0.07600
C707        C  0.74424789  0.02296502  0.38923450    -0.02100
C708        C  0.70162558  0.52315800  0.39327379     0.04700
N709        N  0.69290466  0.52087420  0.43741877     0.67200
H710        H  0.63445444  0.52785008  0.35816867     0.16100
H711        H  0.77922188  0.03725578  0.34012223     0.15800
N712        N  0.72009592  0.03869362  0.26004647     0.74900
O713        O  0.68834476  0.55790562  0.45794613    -0.38600
O714        O  0.67523603  0.98538387  0.44658975    -0.38500
O715        O  0.72615832  0.57851795  0.24741411    -0.39200
O716        O  0.72835058  0.00428925  0.23789826    -0.39300
C717        C  0.04853772  0.73335115  0.98295114    -0.11600
C718        C  0.00485490  0.73055023  0.95666372     0.05500
C719        C  0.97363021  0.72546583  0.98059101    -0.06800
C720        C  0.98633841  0.72384859  0.02943265    -0.07600
C721        C  0.02991832  0.72689748  0.05577054    -0.02100
C722        C  0.06128090  0.73153168  0.03191999     0.04700
N723        N  0.10612109  0.73510456  0.05666194     0.67200
H724        H  0.07313656  0.73714556  0.96545708     0.16100
H725        H  0.96166485  0.71992876  0.04681023     0.15800
N726        N  0.92883441  0.72114050  0.95601452     0.74900
O727        O  0.12997754  0.69977135  0.06167739    -0.38600
O728        O  0.12315276  0.77424389  0.06454231    -0.38500
O729        O  0.91242269  0.68169888  0.94826193    -0.39200
O730        O  0.90445523  0.75605592  0.95095988    -0.39300
C731        C  0.07308797  0.45319238  0.60142391    -0.11600
C732        C  0.10961816  0.97908331  0.62294695     0.05500
C733        C  0.11233816  0.00000559  0.66644054    -0.06800
C734        C  0.07753320  0.99755319  0.68518928    -0.07600
C735        C  0.03792571  0.97653027  0.66075450    -0.02100
C736        C  0.03836763  0.45049950  0.62010330     0.04700
N737        N  0.00488226  0.91976766  0.59730779     0.67200
H738        H  0.07156754  0.43419740  0.56961985     0.16100
H739        H  0.08171876  0.01368110  0.71895305     0.15800
N740        N  0.14905444  0.02610449  0.69120126     0.74900
O741        O  0.97775821  0.43242759  0.55976663    -0.38600
O742        O  0.01271331  0.87732360  0.60336008    -0.38500
O743        O  0.15249799  0.56675943  0.67873217    -0.39200
O744        O  0.17126984  0.01323956  0.73121349    -0.39300
C745        C  0.02190985  0.56449548  0.31501218    -0.11600
C746        C  0.02573132  0.52113816  0.29442101     0.05500
C747        C  0.01973884  0.52054535  0.24477888    -0.06800
C748        C  0.02104177  0.56201222  0.22203096    -0.07600
C749        C  0.02190826  0.60416011  0.24489156    -0.02100
C750        C  0.01908785  0.60535561  0.29067123     0.04700
N751        N  0.01754404  0.64796005  0.31457983     0.67200
H752        H  0.02388472  0.56724397  0.35161776     0.16100
H753        H  0.02008460  0.56141303  0.18555012     0.15800
N754        N  0.00901257  0.48035793  0.21538981     0.74900
O755        O  0.98209184  0.66232291  0.31911429    -0.38600
O756        O  0.05212853  0.66707697  0.33750132    -0.38500
O757        O  0.97080447  0.46605917  0.20416357    -0.39200
O758        O  0.03113884  0.47065946  0.18816282    -0.39300
C759        C  0.06613259  0.88329186  0.25215057    -0.11600
C760        C  0.03446060  0.85034683  0.24857963     0.05500
C761        C  0.00523304  0.85680243  0.27481379    -0.06800
C762        C  0.00703078  0.89674098  0.30194456    -0.07600
C763        C  0.03600333  0.93264326  0.30202675    -0.02100
C764        C  0.06845664  0.92281290  0.27960743     0.04700
N765        N  0.10537936  0.95101451  0.28533819     0.67200
H766        H  0.09095935  0.87758324  0.23505045     0.16100
H767        H  0.98564019  0.89847682  0.32346062     0.15800
N768        N  0.97439054  0.82254751  0.27574906     0.74900
O769        O  0.13898473  0.94127993  0.31792313    -0.38600
O770        O  0.10984571  0.97103734  0.25000834    -0.38500
O771        O  0.98053344  0.79743583  0.31112841    -0.39200
O772        O  0.93808880  0.82264819  0.24509452    -0.39300
C773        C  0.08661147  0.94641552  0.40173149    -0.11600
C774        C  0.07913216  0.98120655  0.36763284     0.05500
C775        C  0.11276680  0.51429015  0.37406226    -0.06800
C776        C  0.14883495  0.51272403  0.41401197    -0.07600
C777        C  0.15173123  0.98360595  0.45170776    -0.02100
C778        C  0.12038303  0.94802283  0.44398981     0.04700
N779        N  0.11975316  0.91460420  0.47883298     0.67200
H780        H  0.06318805  0.91924676  0.39713044     0.16100
H781        H  0.17533848  0.53438325  0.41431530     0.15800
N782        N  0.11294919  0.54958604  0.34135796     0.74900
O783        O  0.08410742  0.90225481  0.48355574    -0.38600
O784        O  0.15347251  0.89315883  0.50080965    -0.38500
O785        O  0.13096191  0.54141248  0.31008711    -0.39200
O786        O  0.11172286  0.59075751  0.35472523    -0.39300
C787        C  0.91979653  0.47925277  0.34998385    -0.11600
C788        C  0.92947604  0.99318498  0.39693300     0.05500
C789        C  0.97292536  0.00411234  0.42032218    -0.06800
C790        C  0.00499570  0.99711619  0.39847986    -0.07600
C791        C  0.99628351  0.98195845  0.35153009    -0.02100
C792        C  0.95154710  0.47685679  0.32660271     0.04700
N793        N  0.93652824  0.47347831  0.27695310     0.67200
H794        H  0.88681831  0.47261681  0.32987028     0.16100
H795        H  0.03662764  0.00889764  0.41818156     0.15800
N796        N  0.98480845  0.02954606  0.46315379     0.74900
O797        O  0.91983512  0.43628009  0.25849583    -0.38600
O798        O  0.92493259  0.51019618  0.25459704    -0.38500
O799        O  0.00873670  0.01060053  0.49939580    -0.39200
O800        O  0.98391999  0.07280827  0.46096572    -0.39300
C801        C  0.44683760  0.80733271  0.39668333    -0.11600
C802        C  0.42129500  0.76777391  0.38681997     0.05500
C803        C  0.42475573  0.73873740  0.35026028    -0.06800
C804        C  0.45853951  0.74425901  0.33099004    -0.07600
C805        C  0.49055862  0.77800058  0.34777684    -0.02100
C806        C  0.47886236  0.81453477  0.37426049     0.04700
N807        N  0.49721213  0.85933597  0.37659279     0.67200
H808        H  0.44096614  0.83314709  0.42056178     0.16100
H809        H  0.45926639  0.72095544  0.30288027     0.15800
N810        N  0.39479616  0.70260238  0.33271050     0.74900
O811        O  0.47721574  0.88938699  0.34813998    -0.38600
O812        O  0.52704011  0.87186574  0.41206271    -0.38500
O813        O  0.37301555  0.70242709  0.29015873    -0.39200
O814        O  0.39695501  0.66665953  0.35633060    -0.39300
C815        C  0.20642043  0.75247456  0.38983970    -0.11600
C816        C  0.24641397  0.73541676  0.38717601     0.05500
C817        C  0.24690265  0.71021176  0.34625631    -0.06800
C818        C  0.20982733  0.70945506  0.30739564    -0.07600
C819        C  0.17102544  0.72948308  0.30968674    -0.02100
C820        C  0.16949226  0.75090507  0.35168939     0.04700
N821        N  0.13077270  0.77192494  0.35623913     0.67200
H822        H  0.20318980  0.76650412  0.42226735     0.16100
H823        H  0.21054549  0.69038752  0.27628124     0.15800
N824        N  0.28239615  0.68091283  0.34499132     0.74900
O825        O  0.10884756  0.75156807  0.37824864    -0.38600
O826        O  0.12319395  0.81377813  0.34631256    -0.38500
O827        O  0.29340233  0.64846263  0.37369578    -0.39200
O828        O  0.29523304  0.68020995  0.30912131    -0.39300
C829        C  0.44330660  0.70123919  0.62427957    -0.11600
C830        C  0.46439314  0.74333975  0.64032032     0.05500
C831        C  0.45007555  0.78131852  0.60981595    -0.06800
C832        C  0.41249529  0.77870140  0.57184338    -0.07600
C833        C  0.38943731  0.73789409  0.55885567    -0.02100
C834        C  0.40874348  0.69758552  0.58281991     0.04700
N835        N  0.39854970  0.65260668  0.56273433     0.67200
H836        H  0.45639259  0.66949025  0.64120035     0.16100
H837        H  0.40297168  0.80876808  0.55024860     0.15800
N838        N  0.47412670  0.82253834  0.61455615     0.74900
O839        O  0.39651001  0.61931508  0.58853375    -0.38600
O840        O  0.40106566  0.64433356  0.52213913    -0.38500
O841        O  0.49947833  0.82635682  0.58995817    -0.39200
O842        O  0.45870829  0.85868373  0.62744979    -0.39300
C843        C  0.54819448  0.71402955  0.63486837    -0.11600
C844        C  0.54439445  0.74969360  0.66628746     0.05500
C845        C  0.57612010  0.78547727  0.67482390    -0.06800
C846        C  0.61145178  0.78059798  0.65693333    -0.07600
C847        C  0.61493650  0.74390935  0.62768549    -0.02100
C848        C  0.58240980  0.71106639  0.61573135     0.04700
N849        N  0.58430447  0.67354136  0.58505888     0.67200
H850        H  0.52512464  0.68643399  0.62640926     0.16100
H851        H  0.63509510  0.80771250  0.66312378     0.15800
N852        N  0.57278818  0.82858280  0.69754166     0.74900
O853        O  0.60703606  0.63858272  0.60095406    -0.38600
O854        O  0.55765591  0.67182641  0.54474027    -0.38500
O855        O  0.60535747  0.84314596  0.72887691    -0.39200
O856        O  0.54515242  0.85783699  0.67656535    -0.39300
C857        C  0.45993081  0.80850330  0.71260850    -0.11600
C858        C  0.50013860  0.78565740  0.71974626     0.05500
C859        C  0.53276666  0.79751331  0.76206351    -0.06800
C860        C  0.52929502  0.83874293  0.78572033    -0.07600
C861        C  0.49093563  0.86415180  0.77379419    -0.02100
C862        C  0.45496673  0.84660028  0.73942604     0.04700
N863        N  0.41312187  0.86732668  0.73073597     0.67200
H864        H  0.43117022  0.79659131  0.68676555     0.16100
H865        H  0.55593322  0.84974405  0.81509709     0.15800
N866        N  0.56760596  0.76710676  0.78399109     0.74900
O867        O  0.39566425  0.88616994  0.69201180    -0.38600
O868        O  0.39010003  0.85725051  0.75650271    -0.38500
O869        O  0.60581036  0.78137076  0.79341503    -0.39200
O870        O  0.56006943  0.73549748  0.80878631    -0.39300
C871        C  0.53826193  0.62969813  0.75601752    -0.11600
C872        C  0.50011060  0.62067280  0.76673223     0.05500
C873        C  0.46559534  0.65230326  0.75280085    -0.06800
C874        C  0.47017657  0.69227505  0.72971136    -0.07600
C875        C  0.50742209  0.70121414  0.71591953    -0.02100
C876        C  0.54277369  0.66893652  0.73111121     0.04700
N877        N  0.58414514  0.67466931  0.72395049     0.67200
H878        H  0.56518012  0.60577855  0.76702075     0.16100
H879        H  0.44259366  0.71534115  0.71934846     0.15800
N880        N  0.42402099  0.64236222  0.75749985     0.74900
O881        O  0.61266387  0.69670595  0.75406947    -0.38600
O882        O  0.59650811  0.64497657  0.69941578    -0.38500
O883        O  0.40960191  0.66570347  0.78554206    -0.39200
O884        O  0.39881155  0.61673502  0.72758452    -0.39300
C885        C  0.47409435  0.99781330  0.98061516    -0.11600
C886        C  0.50722373  0.50132608  0.95943806     0.05500
C887        C  0.54992233  0.50802360  0.98819995    -0.06800
C888        C  0.55829492  0.51267002  0.03659630    -0.07600
C889        C  0.52510301  0.50993291  0.05771432    -0.02100
C890        C  0.48262593  0.00156150  0.02916979     0.04700
N891        N  0.44780663  0.99590138  0.04867880     0.67200
H892        H  0.44119368  0.99192164  0.95938106     0.16100
H893        H  0.59124790  0.51838334  0.05777333     0.15800
N894        N  0.58533211  0.51023016  0.96909699     0.74900
O895        O  0.42212820  0.52910730  0.04808306    -0.38600
O896        O  0.43737972  0.95595100  0.05670862    -0.38500
O897        O  0.60192098  0.54859204  0.96619448    -0.39200
O898        O  0.60536075  0.97382538  0.96460275    -0.39300
C899        C  0.32704543  0.51391480  0.70835999    -0.11600
C900        C  0.36721148  0.00192578  0.70292242     0.05500
C901        C  0.37030539  0.99359626  0.65757381    -0.06800
C902        C  0.33285762  0.99039655  0.62019673    -0.07600
C903        C  0.29166487  0.99767406  0.62596228    -0.02100
C904        C  0.28990279  0.51608155  0.66966397     0.04700
N905        N  0.25396395  0.54309648  0.67436928     0.67200
H906        H  0.32529444  0.52516520  0.74238665     0.16100
H907        H  0.33628744  0.98386274  0.58578668     0.15800
N908        N  0.41113412  0.99077793  0.64835191     0.74900
O909        O  0.24712637  0.54650519  0.71364917    -0.38600
O910        O  0.23550416  0.57132570  0.64302290    -0.38500
O911        O  0.42507521  0.95273443  0.63779035    -0.39200
O912        O  0.43173148  0.52701109  0.64724470    -0.39300
loop_ 
_geom_bond_atom_site_label_1 
_geom_bond_atom_site_label_2 
_geom_bond_distance 
_geom_bond_site_symmetry_2 
_ccdc_geom_bond_type 
In1           O3   2.215   1_565  S
In1           O4   2.252   1_565  S
In1          O12   2.236       .  S
In1           O8   2.242   1_565  S
In1         O462   2.235       .  S
In1         O465   2.248       .  S
In1         O466   2.189       .  S
In1         O469   2.217       .  S
C2           O10   1.260       .  A
C2          O464   1.271       .  A
C2          C444   1.475       .  S
O3           C11   1.261       .  A
O4           C11   1.269       .  A
C5           O12   1.263       .  A
C5          O462   1.265       .  A
C5          C430   1.485   1_565  S
O6         In457   2.235       .  S
O6          C461   1.265       .  A
C7            O9   1.268       .  A
C7           O13   1.260       .  A
C7          C405   1.472       .  S
O8          C458   1.271   1_545  A
O9         In457   2.248       .  S
O10        In457   2.189       .  S
C11         C416   1.482       .  S
O13        In457   2.217       .  S
C14         C374   1.596       .  S
C14         C388   1.563       .  S
C14         C402   1.568       .  S
C14         C419   1.573       .  S
C15          C17   1.559       .  S
C15          C19   1.554       .  S
C15          C18   1.550       .  S
C15         C377   1.547       .  S
C16          C20   1.545       .  S
C16          C22   1.525       .  S
C16          C21   1.534       .  S
C16         C360   1.531       .  S
C17          C25   1.391       .  A
C17          C20   1.397       .  A
C18          C29   1.388       .  A
C18          C21   1.403       .  A
C19          C33   1.389       .  A
C19          C22   1.389       .  A
C20          C23   1.379       .  A
C21          C27   1.381       .  A
C22          C30   1.377       .  A
C23          N24   1.356       .  A
C23          H36   1.080       .  S
N24          C25   1.366       .  A
N24          N55   1.420       .  S
C25          H26   1.081       .  S
C27          N28   1.354       .  A
C27          H37   1.082       .  S
N28          C29   1.357       .  A
N28         C346   1.441       .  S
C29          H35   1.082       .  S
C30          N31   1.354       .  A
C30          H32   1.081       .  S
N31          C33   1.364       .  A
N31          N48   1.418       .  S
C33          H34   1.079       .  S
C38         C307   1.562       .  S
C38         C318   1.586       .  S
C38         C335   1.590   1_455  S
C38         C746   1.561       .  S
C39          C43   1.548       .  S
C39          C42   1.547       .  S
C39         C321   1.555       .  S
C39         C497   1.568       .  S
C40          C46   1.541       .  S
C40          C45   1.547       .  S
C40         C447   1.532       .  S
C40         C500   1.530       .  S
C41         C495   1.568   1_545  S
C41          C49   1.397       .  A
C41          C44   1.397       .  A
C42          C53   1.378       .  A
C42          C45   1.396       .  A
C43          C57   1.384       .  A
C43          C46   1.390       .  A
C44         C496   1.530   1_545  S
C44          C47   1.375       .  A
C45          C51   1.387       .  A
C46          C54   1.385       .  A
C47          N48   1.352       .  A
C47          H60   1.081       .  S
N48          C49   1.364       .  A
C49          H50   1.077       .  S
C51          N52   1.360       .  A
C51          H61   1.080       .  S
N52          C53   1.360       .  A
N52         C276   1.448       .  S
C53          H59   1.082       .  S
C54          N55   1.358       .  A
C54          H56   1.081       .  S
N55          C57   1.364       .  A
C57          H58   1.081       .  S
In62         O64   2.211       .  S
In62         O65   2.238       .  S
In62         O73   2.235       .  S
In62         O67   2.258       .  S
In62         O69   2.269       .  S
In62         O70   2.227       .  S
In62         O71   2.206       .  S
In62         O74   2.232       .  S
C63          O69   1.266       .  A
C63          O71   1.255       .  A
C63         C363   1.476       .  S
O64          C72   1.262       .  A
O65          C72   1.262       .  A
C66          O73   1.262       .  A
C66          O67   1.263       .  A
C66         C265   1.487       .  S
C68          O70   1.260       .  A
C68          O74   1.262       .  A
C68         C293   1.465       .  S
C72         C304   1.477       .  S
In75         O77   2.242       .  S
In75         O78   2.231       .  S
In75         O86   2.248       .  S
In75         O82   2.271       .  S
In75        O536   2.232       .  S
In75        O539   2.255   1_545  S
In75        O540   2.191       .  S
In75        O543   2.215   1_545  S
C76          O84   1.259       .  A
C76         O538   1.269       .  A
C76         C248   1.479       .  S
O77          C85   1.262       .  A
O78          C85   1.264       .  A
C79          O86   1.263       .  A
C79         O536   1.264       .  A
C79         C433   1.485       .  S
O80        In531   2.232       .  S
O80         C535   1.264       .  A
C81          O83   1.265       .  A
C81          O87   1.259       .  A
C81         C220   1.468       .  S
O82         C532   1.269       .  A
O83        In531   2.255       .  S
O84        In531   2.191       .  S
C85         C237   1.475       .  S
O87        In531   2.216       .  S
C88         C192   1.564       .  S
C88         C209   1.568       .  S
C88         C279   1.588   1_655  S
C88         C634   1.579   1_655  S
C89          C93   1.545       .  S
C89          C92   1.543       .  S
C89         C206   1.532       .  S
C89         C547   1.536       .  S
C90          C96   1.552       .  S
C90          C95   1.559       .  S
C90         C251   1.534       .  S
C90         C550   1.537       .  S
C91         C545   1.536       .  S
C91          C99   1.383       .  A
C91          C94   1.385       .  A
C92         C103   1.374       .  A
C92          C95   1.394       .  A
C93         C107   1.384       .  A
C93          C96   1.396       .  A
C94         C546   1.537       .  S
C94          C97   1.381       .  A
C95         C101   1.395       .  A
C96         C104   1.386       .  A
C97          N98   1.357       .  A
C97         H110   1.081       .  S
N98          C99   1.364       .  A
N98         N129   1.418       .  S
C99         H100   1.081       .  S
C101        N102   1.366       .  A
C101        H111   1.069       .  S
N102        C103   1.353       .  A
N102        C332   1.457       .  S
C103        H109   1.077       .  S
C104        N105   1.362       .  A
C104        H106   1.081       .  S
N105        C107   1.361       .  A
N105        N122   1.421       .  S
C107        H108   1.079       .  S
C112        C167   1.585       .  S
C112        C223   1.563       .  S
C112        C234   1.565       .  S
C112        C349   1.580       .  S
C113        C115   1.548       .  S
C113        C117   1.552       .  S
C113        C116   1.536       .  S
C113        C164   1.542       .  S
C114        C118   1.546       .  S
C114        C120   1.552       .  S
C114        C119   1.528       .  S
C114        C150   1.535       .  S
C115        C123   1.385       .  A
C115        C118   1.403       .  A
C116        C127   1.377       .  A
C116        C119   1.380       .  A
C117        C131   1.388       .  A
C117        C120   1.403       .  A
C118        C121   1.387       .  A
C119        C125   1.380       .  A
C120        C128   1.380       .  A
C121        N122   1.360       .  A
C121        H134   1.080       .  S
N122        C123   1.360       .  A
C123        H124   1.081       .  S
C125        N126   1.356       .  A
C125        H135   1.082       .  S
N126        C127   1.352       .  A
N126        C391   1.433       .  S
C127        H133   1.080       .  S
C128        N129   1.356       .  A
C128        H130   1.080       .  S
N129        C131   1.364       .  A
C131        H132   1.081       .  S
In136       O138   2.271   1_655  S
In136       O139   2.226       .  S
In136       O147   2.248   1_655  S
In136       O141   2.248       .  S
In136       O143   2.259       .  S
In136       O144   2.248   1_655  S
In136       O145   2.232       .  S
In136       O148   2.237       .  S
C137        O143   1.261       .  A
C137        O145   1.257       .  A
C137        C153   1.480       .  S
O138        C146   1.263   1_455  A
O139        C146   1.258       .  A
C140        O147   1.263   1_655  A
C140        O141   1.262       .  A
C140        C262   1.488   1_655  S
C142        O144   1.263   1_655  A
C142        O148   1.260       .  A
C142        C181   1.480   1_655  S
C146        C195   1.475       .  S
C149        C150   1.409       .  A
C149        C154   1.394       .  A
C149        H156   1.082       .  S
C150        C151   1.420       .  A
C151        C152   1.407       .  A
C151        N158   1.433       .  S
C152        C153   1.405       .  A
C152        H157   1.084       .  S
C153        C154   1.408       .  A
C154        N155   1.430       .  S
N155        O159   1.262       .  A
N155        O160   1.262       .  A
N158        O162   1.262       .  A
N158        O161   1.262       .  A
C163        C164   1.402       .  A
C163        C168   1.410       .  A
C163        H170   1.081       .  S
C164        C165   1.420       .  A
C165        C166   1.399       .  A
C165        N172   1.444       .  S
C166        C167   1.409       .  A
C166        H171   1.067       .  S
C167        C168   1.437       .  A
C168        N169   1.430       .  S
N169        O173   1.262       .  A
N169        O174   1.262       .  A
N172        O176   1.263       .  A
N172        O175   1.261       .  A
C177        C178   1.422       .  A
C177        C182   1.391       .  A
C177        H184   1.079       .  S
C178        C544   1.579   1_445  S
C178        C179   1.437   1_455  A
C179        C180   1.409       .  A
C179        N186   1.431   1_545  S
C180        C181   1.400   1_655  A
C180        H185   1.084       .  S
C181        C182   1.400       .  A
C182        N183   1.430       .  S
N183        O187   1.262       .  A
N183        O188   1.262   1_455  A
N186        O190   1.260       .  A
N186        O189   1.262   1_655  A
C191        C192   1.421   1_455  A
C191        C196   1.401       .  A
C191        H198   1.083       .  S
C192        C193   1.442       .  A
C193        C194   1.401       .  A
C193        N200   1.436       .  S
C194        C195   1.396       .  A
C194        H199   1.085       .  S
C195        C196   1.398   1_655  A
C196        N197   1.429       .  S
N197        O201   1.262       .  A
N197        O202   1.262       .  A
N200        O204   1.260       .  A
N200        O203   1.259       .  A
C205        C206   1.399       .  A
C205        C210   1.407       .  A
C205        H212   1.083       .  S
C206        C207   1.416       .  A
C207        C208   1.400       .  A
C207        N670   1.446       .  S
C208        C209   1.414       .  A
C208        H213   1.078       .  S
C209        C210   1.433       .  A
C210        N211   1.429       .  S
N211        O671   1.261       .  A
N211        O216   1.262       .  A
N214        C663   1.446       .  S
N214        O674   1.262       .  A
N214        O217   1.261       .  A
O215        N667   1.261       .  A
O218        N670   1.262       .  A
C219        C220   1.395       .  A
C219        C224   1.406       .  A
C219        H226   1.084       .  S
C220        C221   1.402       .  A
C221        C222   1.390       .  A
C221        N228   1.429       .  S
C222        C223   1.413       .  A
C222        H227   1.078       .  S
C223        C224   1.435       .  A
C224        N225   1.431       .  S
N225        O229   1.262       .  A
N225        O230   1.262       .  A
N228        O232   1.262       .  A
N228        O231   1.261       .  A
C233        C234   1.418       .  A
C233        C238   1.400       .  A
C233        H240   1.079       .  S
C234        C235   1.429       .  A
C235        C236   1.398       .  A
C235        N242   1.434       .  S
C236        C237   1.399       .  A
C236        H241   1.084       .  S
C237        C238   1.404       .  A
C238        N239   1.429       .  S
N239        O243   1.262       .  A
N239        O244   1.262       .  A
N242        O246   1.262       .  A
N242        O245   1.262       .  A
C247        C252   1.392       .  A
C247        C704   1.401       .  A
C247        H254   1.081       .  S
C248        C249   1.405       .  A
C248        C703   1.401       .  A
C249        C250   1.405       .  A
C249        N256   1.429       .  S
C250        C251   1.412       .  A
C250        H255   1.055       .  S
C251        C708   1.422       .  A
C252        C707   1.422       .  A
C252        N253   1.435       .  S
N253        O257   1.261       .  A
N253        O714   1.262   1_545  A
N256        O260   1.262       .  A
N256        O715   1.262       .  A
O258        N709   1.262       .  A
O259        N712   1.262       .  A
C261        C262   1.406       .  A
C261        C266   1.404   1_556  A
C261        H268   1.084       .  S
C262        C263   1.413   1_455  A
C263        C264   1.400   1_556  A
C263        N270   1.428       .  S
C264        C265   1.404   1_655  A
C264        H269   1.084       .  S
C265        C266   1.414       .  A
C266        N267   1.429       .  S
N267        O271   1.262       .  A
N267        O272   1.262       .  A
N270        O274   1.262       .  A
N270        O273   1.262       .  A
C275        C280   1.401       .  A
C275        C732   1.395       .  A
C275        H282   1.083       .  S
C276        C277   1.410       .  A
C276        C731   1.395       .  A
C277        C278   1.404       .  A
C277        N284   1.426       .  S
C278        C279   1.420       .  A
C278        H283   1.081       .  S
C279        C736   1.428       .  A
C280        C735   1.428       .  A
C280        N737   1.421       .  S
N281        C736   1.421       .  S
N281        O741   1.262   1_455  A
N281        O286   1.263       .  A
N284        O288   1.262       .  A
N284        O743   1.262       .  A
O285        N737   1.262   1_655  A
O287        N740   1.262       .  A
C289        C290   1.416       .  A
C289        C294   1.392       .  A
C289        H296   1.081       .  S
C290        C494   1.561   1_545  S
C290        C291   1.442       .  A
C291        C292   1.402       .  A
C291        N298   1.437   1_545  S
C292        C293   1.393       .  A
C292        H297   1.084       .  S
C293        C294   1.401       .  A
C294        N295   1.431       .  S
N295        O299   1.262   1_455  A
N295        O300   1.262       .  A
N298        O302   1.262       .  A
N298        O301   1.260   1_455  A
C303        C304   1.395       .  A
C303        C308   1.394       .  A
C303        H310   1.084       .  S
C304        C305   1.408       .  A
C305        C306   1.400       .  A
C305        N312   1.429   1_455  S
C306        C307   1.415       .  A
C306        H311   1.078   1_455  S
C307        C308   1.429       .  A
C308        N309   1.428       .  S
N309        O313   1.262       .  A
N309        O314   1.262       .  A
N312        O316   1.262       .  A
N312        O315   1.262       .  A
C317        C318   1.416       .  A
C317        C322   1.410       .  A
C317        H324   1.083       .  S
C318        C775   1.434       .  A
C319        C320   1.406       .  A
C319        C774   1.434   1_545  A
C319        N326   1.432       .  S
C320        C777   1.402   1_545  A
C320        H325   1.071       .  S
C321        C322   1.430       .  A
C321        C776   1.402       .  A
C322        N323   1.442       .  S
N323        O327   1.263       .  A
N323        O328   1.260       .  A
N326        O330   1.262       .  A
N326        O329   1.260       .  A
C331        C336   1.406       .  A
C331        C788   1.402       .  A
C331        H338   1.080       .  S
C332        C333   1.415       .  A
C332        C787   1.402       .  A
C333        C334   1.394   1_655  A
C333        N340   1.425       .  S
C334        C335   1.416   1_455  A
C334        H339   1.079       .  S
C335        C792   1.431       .  A
C336        C791   1.431       .  A
C336        N337   1.425       .  S
N337        O341   1.262       .  A
N337        O342   1.263   1_565  A
N340        O344   1.262       .  A
N340        O343   1.263   1_655  A
C345        C346   1.405       .  A
C345        C350   1.413       .  A
C345        H352   1.083       .  S
C346        C347   1.403       .  A
C347        C348   1.393       .  A
C347        N354   1.428       .  S
C348        C349   1.415       .  A
C348        H353   1.079       .  S
C349        C350   1.430       .  A
C350        N351   1.434       .  S
N351        O355   1.262       .  A
N351        O356   1.261       .  A
N354        O358   1.262       .  A
N354        O357   1.262       .  A
C359        C360   1.406       .  A
C359        C364   1.391       .  A
C359        H366   1.081       .  S
C360        C361   1.423       .  A
C361        C362   1.406       .  A
C361        N368   1.432       .  S
C362        C363   1.399       .  A
C362        H367   1.084       .  S
C363        C364   1.410       .  A
C364        N365   1.430       .  S
N365        O369   1.262       .  A
N365        O370   1.262       .  A
N368        O372   1.262       .  A
N368        O371   1.262       .  A
C373        C374   1.419       .  A
C373        C378   1.410       .  A
C373        H380   1.080       .  S
C374        C375   1.428       .  A
C375        C376   1.403       .  A
C375        N382   1.423       .  S
C376        C377   1.401       .  A
C376        H381   1.082       .  S
C377        C378   1.423       .  A
C378        N379   1.434       .  S
N379        O383   1.263       .  A
N379        O384   1.262       .  A
N382        O386   1.262       .  A
N382        O385   1.262       .  A
C387        C388   1.419       .  A
C387        C392   1.392       .  A
C387        H394   1.081       .  S
C388        C389   1.441       .  A
C389        C390   1.406       .  A
C389        N396   1.436       .  S
C390        C391   1.396       .  A
C390        H395   1.084       .  S
C391        C392   1.397       .  A
C392        N393   1.429       .  S
N393        O397   1.262       .  A
N393        O398   1.262       .  A
N396        O400   1.259       .  A
N396        O399   1.262       .  A
C401        C402   1.415       .  A
C401        C406   1.395       .  A
C401        H408   1.079       .  S
C402        C403   1.433       .  A
C403        C404   1.405       .  A
C403        N410   1.429       .  S
C404        C405   1.393       .  A
C404        H409   1.084       .  S
C405        C406   1.405       .  A
C406        N407   1.430       .  S
N407        O411   1.261       .  A
N407        O412   1.262       .  A
N410        O414   1.262       .  A
N410        O413   1.262       .  A
C415        C416   1.396       .  A
C415        C420   1.406       .  A
C415        H422   1.084       .  S
C416        C417   1.408       .  A
C417        C418   1.395       .  A
C417        N424   1.430       .  S
C418        C419   1.416       .  A
C418        H423   1.083       .  S
C419        C420   1.442       .  A
C420        N421   1.432       .  S
N421        O425   1.260       .  A
N421        O426   1.262       .  A
N424        O428   1.262       .  A
N424        O427   1.262       .  A
C429        C434   1.401   1_556  A
C429        C886   1.405       .  A
C429        H436   1.084       .  S
C430        C431   1.413       .  A
C430        C885   1.405   1_545  A
C431        C432   1.399   1_556  A
C431        N438   1.429       .  S
C432        C433   1.404       .  A
C432        H437   1.084       .  S
C433        C890   1.414       .  A
C434        C889   1.414       .  A
C434        N435   1.429       .  S
N435        O895   1.262       .  A
N435        O440   1.262       .  A
N438        O898   1.262   1_545  A
N438        O441   1.262       .  A
O439        N891   1.262   1_545  A
O442        N894   1.262       .  A
C443        C448   1.406       .  A
C443        C900   1.398       .  A
C443        H450   1.083       .  S
C444        C445   1.409       .  A
C444        C899   1.398       .  A
C445        C446   1.391       .  A
C445        N452   1.431       .  S
C446        C447   1.409       .  A
C446        H451   1.083       .  S
C447        C904   1.424       .  A
C448        C903   1.424   1_545  A
C448        N449   1.437       .  S
N449        O453   1.262       .  A
N449        O454   1.262       .  A
N452        O912   1.262       .  A
N452        O455   1.261       .  A
O456        N908   1.262   1_545  A
In457       O459   2.215       .  S
In457       O460   2.252       .  S
In457       O468   2.236       .  S
In457       O464   2.242       .  S
C458        O466   1.260       .  A
C458        C900   1.475   1_565  S
O459        C467   1.261       .  A
O460        C467   1.269       .  A
C461        O468   1.263       .  A
C461        C886   1.485       .  S
C463        O465   1.268       .  A
C463        O469   1.260       .  A
C463        C861   1.472       .  S
C467        C872   1.482       .  S
C470        C830   1.596       .  S
C470        C844   1.563       .  S
C470        C858   1.568       .  S
C470        C875   1.573       .  S
C471        C473   1.559       .  S
C471        C475   1.554       .  S
C471        C474   1.550       .  S
C471        C833   1.547       .  S
C472        C476   1.545       .  S
C472        C478   1.525       .  S
C472        C477   1.534       .  S
C472        C816   1.531       .  S
C473        C481   1.391       .  A
C473        C476   1.397       .  A
C474        C485   1.388       .  A
C474        C477   1.403       .  A
C475        C489   1.389       .  A
C475        C478   1.389       .  A
C476        C479   1.379       .  A
C477        C483   1.381       .  A
C478        C486   1.377       .  A
C479        N480   1.356       .  A
C479        H492   1.080       .  S
N480        C481   1.366       .  A
N480        N511   1.420       .  S
C481        H482   1.081       .  S
C483        N484   1.354       .  A
C483        H493   1.082       .  S
N484        C485   1.357       .  A
N484        C802   1.441       .  S
C485        H491   1.082       .  S
C486        N487   1.354       .  A
C486        H488   1.081       .  S
N487        C489   1.364       .  A
N487        N504   1.418       .  S
C489        H490   1.079       .  S
C494        C763   1.562       .  S
C494        C774   1.586       .  S
C494        C791   1.590   1_455  S
C495        C499   1.548       .  S
C495        C498   1.547       .  S
C495        C777   1.555       .  S
C496        C502   1.541       .  S
C496        C501   1.547       .  S
C496        C903   1.532       .  S
C497        C505   1.397       .  A
C497        C500   1.397       .  A
C498        C509   1.378       .  A
C498        C501   1.396       .  A
C499        C513   1.384       .  A
C499        C502   1.390       .  A
C500        C503   1.375       .  A
C501        C507   1.387       .  A
C502        C510   1.385       .  A
C503        N504   1.352       .  A
C503        H516   1.081       .  S
N504        C505   1.364       .  A
C505        H506   1.077       .  S
C507        N508   1.360       .  A
C507        H517   1.080       .  S
N508        C509   1.360       .  A
N508        C732   1.448       .  S
C509        H515   1.082       .  S
C510        N511   1.358       .  A
C510        H512   1.081       .  S
N511        C513   1.364       .  A
C513        H514   1.081       .  S
In518       O520   2.211       .  S
In518       O521   2.238       .  S
In518       O529   2.235       .  S
In518       O523   2.258       .  S
In518       O525   2.269       .  S
In518       O526   2.226       .  S
In518       O527   2.205       .  S
In518       O530   2.232       .  S
C519        O525   1.266       .  A
C519        O527   1.255       .  A
C519        C819   1.476       .  S
O520        C528   1.262       .  A
O521        C528   1.262       .  A
C522        O529   1.262       .  A
C522        O523   1.263       .  A
C522        C721   1.487       .  S
C524        O526   1.260       .  A
C524        O530   1.262       .  A
C524        C749   1.465       .  S
C528        C760   1.477       .  S
In531       O533   2.242       .  S
In531       O534   2.231       .  S
In531       O542   2.248       .  S
In531       O538   2.271       .  S
C532        O540   1.259       .  A
C532        C704   1.480       .  S
O533        C541   1.262       .  A
O534        C541   1.264       .  A
C535        O542   1.263       .  A
C535        C889   1.485       .  S
C537        O539   1.265       .  A
C537        O543   1.259       .  A
C537        C676   1.468       .  S
C541        C693   1.475       .  S
C544        C648   1.564       .  S
C544        C665   1.568       .  S
C544        C735   1.588   1_655  S
C545        C549   1.545   1_545  S
C545        C548   1.543       .  S
C545        C662   1.532       .  S
C546        C552   1.552   1_545  S
C546        C551   1.559       .  S
C546        C707   1.534       .  S
C547        C555   1.383       .  A
C547        C550   1.385       .  A
C548        C559   1.374       .  A
C548        C551   1.394       .  A
C549        C563   1.384       .  A
C549        C552   1.396       .  A
C550        C553   1.381       .  A
C551        C557   1.396       .  A
C552        C560   1.386       .  A
C553        N554   1.357       .  A
C553        H566   1.081       .  S
N554        C555   1.364       .  A
N554        N585   1.418       .  S
C555        H556   1.081       .  S
C557        N558   1.367   1_545  A
C557        H567   1.066       .  S
N558        C559   1.353   1_565  A
N558        C788   1.457       .  S
C559        H565   1.077   1_545  S
C560        N561   1.362       .  A
C560        H562   1.081       .  S
N561        C563   1.361       .  A
N561        N578   1.421       .  S
C563        H564   1.079       .  S
C568        C623   1.585       .  S
C568        C679   1.563       .  S
C568        C690   1.565       .  S
C568        C805   1.580       .  S
C569        C571   1.548       .  S
C569        C573   1.552       .  S
C569        C572   1.536       .  S
C569        C620   1.542       .  S
C570        C574   1.546       .  S
C570        C576   1.552       .  S
C570        C575   1.528       .  S
C570        C606   1.535       .  S
C571        C579   1.385       .  A
C571        C574   1.403       .  A
C572        C583   1.377       .  A
C572        C575   1.380       .  A
C573        C587   1.388       .  A
C573        C576   1.403       .  A
C574        C577   1.387       .  A
C575        C581   1.380       .  A
C576        C584   1.380       .  A
C577        N578   1.360       .  A
C577        H590   1.080       .  S
N578        C579   1.360       .  A
C579        H580   1.081       .  S
C581        N582   1.356       .  A
C581        H591   1.082       .  S
N582        C583   1.352       .  A
N582        C847   1.433       .  S
C583        H589   1.080       .  S
C584        N585   1.356       .  A
C584        H586   1.080       .  S
N585        C587   1.364       .  A
C587        H588   1.081       .  S
In592       O594   2.271   1_655  S
In592       O595   2.226       .  S
In592       O603   2.248   1_655  S
In592       O597   2.248       .  S
In592       O599   2.259       .  S
In592       O600   2.248   1_655  S
In592       O601   2.232       .  S
In592       O604   2.237       .  S
C593        O599   1.261       .  A
C593        O601   1.257       .  A
C593        C609   1.480       .  S
O594        C602   1.263   1_455  A
O595        C602   1.258       .  A
C596        O603   1.263   1_655  A
C596        O597   1.262       .  A
C596        C718   1.488   1_655  S
C598        O600   1.263   1_655  A
C598        O604   1.260       .  A
C598        C637   1.480   1_655  S
C602        C651   1.475       .  S
C605        C606   1.409       .  A
C605        C610   1.394       .  A
C605        H612   1.082       .  S
C606        C607   1.420       .  A
C607        C608   1.407       .  A
C607        N614   1.433       .  S
C608        C609   1.405       .  A
C608        H613   1.084       .  S
C609        C610   1.408       .  A
C610        N611   1.430       .  S
N611        O615   1.262       .  A
N611        O616   1.262       .  A
N614        O618   1.262       .  A
N614        O617   1.262       .  A
C619        C620   1.402       .  A
C619        C624   1.410       .  A
C619        H626   1.081       .  S
C620        C621   1.420       .  A
C621        C622   1.399       .  A
C621        N628   1.444       .  S
C622        C623   1.409       .  A
C622        H627   1.067       .  S
C623        C624   1.438       .  A
C624        N625   1.430       .  S
N625        O629   1.262       .  A
N625        O630   1.262       .  A
N628        O632   1.263       .  A
N628        O631   1.261       .  A
C633        C634   1.422       .  A
C633        C638   1.391       .  A
C633        H640   1.079       .  S
C634        C635   1.437   1_455  A
C635        C636   1.409       .  A
C635        N642   1.431       .  S
C636        C637   1.400   1_655  A
C636        H641   1.084       .  S
C637        C638   1.400       .  A
C638        N639   1.430       .  S
N639        O643   1.262       .  A
N639        O644   1.262   1_455  A
N642        O646   1.260       .  A
N642        O645   1.262   1_655  A
C647        C648   1.421   1_455  A
C647        C652   1.401       .  A
C647        H654   1.083       .  S
C648        C649   1.442       .  A
C649        C650   1.401       .  A
C649        N656   1.436       .  S
C650        C651   1.396       .  A
C650        H655   1.085       .  S
C651        C652   1.398   1_655  A
C652        N653   1.429       .  S
N653        O657   1.262       .  A
N653        O658   1.262       .  A
N656        O660   1.260       .  A
N656        O659   1.259       .  A
C661        C662   1.399       .  A
C661        C666   1.407   1_545  A
C661        H668   1.083       .  S
C662        C663   1.416       .  A
C663        C664   1.400       .  A
C664        C665   1.414   1_545  A
C664        H669   1.078       .  S
C665        C666   1.433       .  A
C666        N667   1.429       .  S
N667        O672   1.262   1_565  A
N670        O673   1.261       .  A
C675        C676   1.395       .  A
C675        C680   1.406       .  A
C675        H682   1.084       .  S
C676        C677   1.402       .  A
C677        C678   1.390       .  A
C677        N684   1.429       .  S
C678        C679   1.413       .  A
C678        H683   1.078       .  S
C679        C680   1.435       .  A
C680        N681   1.431       .  S
N681        O685   1.262       .  A
N681        O686   1.262       .  A
N684        O688   1.262       .  A
N684        O687   1.261       .  A
C689        C690   1.418       .  A
C689        C694   1.400       .  A
C689        H696   1.079       .  S
C690        C691   1.429       .  A
C691        C692   1.398       .  A
C691        N698   1.434       .  S
C692        C693   1.399       .  A
C692        H697   1.084       .  S
C693        C694   1.404       .  A
C694        N695   1.429       .  S
N695        O699   1.262       .  A
N695        O700   1.262       .  A
N698        O702   1.262       .  A
N698        O701   1.262       .  A
C703        C708   1.392       .  A
C703        H710   1.082       .  S
C704        C705   1.404       .  A
C705        C706   1.405       .  A
C705        N712   1.429       .  S
C706        C707   1.413       .  A
C706        H711   1.048       .  S
C708        N709   1.434       .  S
N709        O713   1.261       .  A
N712        O716   1.262       .  A
C717        C718   1.406       .  A
C717        C722   1.404   1_556  A
C717        H724   1.084       .  S
C718        C719   1.413   1_455  A
C719        C720   1.400   1_556  A
C719        N726   1.428       .  S
C720        C721   1.404   1_655  A
C720        H725   1.084       .  S
C721        C722   1.414       .  A
C722        N723   1.429       .  S
N723        O727   1.262       .  A
N723        O728   1.262       .  A
N726        O730   1.262       .  A
N726        O729   1.262       .  A
C731        C736   1.401       .  A
C731        H738   1.083       .  S
C732        C733   1.410   1_565  A
C733        C734   1.404   1_545  A
C733        N740   1.426       .  S
C734        C735   1.420       .  A
C734        H739   1.081   1_565  S
N737        O742   1.263       .  A
N740        O744   1.262       .  A
C745        C746   1.416       .  A
C745        C750   1.392       .  A
C745        H752   1.081       .  S
C746        C747   1.442       .  A
C747        C748   1.402       .  A
C747        N754   1.437       .  S
C748        C749   1.393       .  A
C748        H753   1.084       .  S
C749        C750   1.401       .  A
C750        N751   1.431       .  S
N751        O755   1.262   1_455  A
N751        O756   1.262       .  A
N754        O758   1.262       .  A
N754        O757   1.260   1_455  A
C759        C760   1.395       .  A
C759        C764   1.394       .  A
C759        H766   1.084       .  S
C760        C761   1.408       .  A
C761        C762   1.400       .  A
C761        N768   1.429   1_455  S
C762        C763   1.415       .  A
C762        H767   1.078   1_455  S
C763        C764   1.429       .  A
C764        N765   1.428       .  S
N765        O769   1.262       .  A
N765        O770   1.262       .  A
N768        O772   1.262       .  A
N768        O771   1.262       .  A
C773        C774   1.416       .  A
C773        C778   1.410       .  A
C773        H780   1.083       .  S
C775        C776   1.406       .  A
C775        N782   1.432       .  S
C776        H781   1.071       .  S
C777        C778   1.430       .  A
C778        N779   1.442       .  S
N779        O783   1.263       .  A
N779        O784   1.260       .  A
N782        O786   1.262       .  A
N782        O785   1.260       .  A
C787        C792   1.406       .  A
C787        H794   1.080       .  S
C788        C789   1.415   1_565  A
C789        C790   1.394   1_645  A
C789        N796   1.425       .  S
C790        C791   1.416   1_455  A
C790        H795   1.080   1_565  S
C792        N793   1.425       .  S
N793        O797   1.262       .  A
N793        O798   1.263       .  A
N796        O800   1.262       .  A
N796        O799   1.263   1_655  A
C801        C802   1.405       .  A
C801        C806   1.413       .  A
C801        H808   1.083       .  S
C802        C803   1.403       .  A
C803        C804   1.393       .  A
C803        N810   1.428       .  S
C804        C805   1.415       .  A
C804        H809   1.079       .  S
C805        C806   1.430       .  A
C806        N807   1.434       .  S
N807        O811   1.262       .  A
N807        O812   1.261       .  A
N810        O814   1.262       .  A
N810        O813   1.262       .  A
C815        C816   1.406       .  A
C815        C820   1.391       .  A
C815        H822   1.081       .  S
C816        C817   1.423       .  A
C817        C818   1.406       .  A
C817        N824   1.432       .  S
C818        C819   1.399       .  A
C818        H823   1.084       .  S
C819        C820   1.410       .  A
C820        N821   1.430       .  S
N821        O825   1.262       .  A
N821        O826   1.262       .  A
N824        O828   1.262       .  A
N824        O827   1.262       .  A
C829        C830   1.419       .  A
C829        C834   1.410       .  A
C829        H836   1.080       .  S
C830        C831   1.428       .  A
C831        C832   1.403       .  A
C831        N838   1.423       .  S
C832        C833   1.401       .  A
C832        H837   1.082       .  S
C833        C834   1.423       .  A
C834        N835   1.434       .  S
N835        O839   1.263       .  A
N835        O840   1.262       .  A
N838        O842   1.262       .  A
N838        O841   1.262       .  A
C843        C844   1.419       .  A
C843        C848   1.392       .  A
C843        H850   1.081       .  S
C844        C845   1.441       .  A
C845        C846   1.406       .  A
C845        N852   1.436       .  S
C846        C847   1.396       .  A
C846        H851   1.084       .  S
C847        C848   1.397       .  A
C848        N849   1.429       .  S
N849        O853   1.262       .  A
N849        O854   1.262       .  A
N852        O856   1.259       .  A
N852        O855   1.262       .  A
C857        C858   1.415       .  A
C857        C862   1.395       .  A
C857        H864   1.079       .  S
C858        C859   1.433       .  A
C859        C860   1.405       .  A
C859        N866   1.429       .  S
C860        C861   1.393       .  A
C860        H865   1.084       .  S
C861        C862   1.405       .  A
C862        N863   1.430       .  S
N863        O867   1.261       .  A
N863        O868   1.262       .  A
N866        O870   1.262       .  A
N866        O869   1.262       .  A
C871        C872   1.396       .  A
C871        C876   1.406       .  A
C871        H878   1.084       .  S
C872        C873   1.408       .  A
C873        C874   1.394       .  A
C873        N880   1.430       .  S
C874        C875   1.416       .  A
C874        H879   1.083       .  S
C875        C876   1.442       .  A
C876        N877   1.432       .  S
N877        O881   1.260       .  A
N877        O882   1.262       .  A
N880        O884   1.262       .  A
N880        O883   1.262       .  A
C885        C890   1.401   1_566  A
C885        H892   1.084       .  S
C886        C887   1.413       .  A
C887        C888   1.399   1_556  A
C887        N894   1.429       .  S
C888        C889   1.404       .  A
C888        H893   1.084       .  S
C890        N891   1.429   1_545  S
N891        O896   1.262       .  A
N894        O897   1.262       .  A
C899        C904   1.406       .  A
C899        H906   1.083       .  S
C900        C901   1.409   1_545  A
C901        C902   1.391       .  A
C901        N908   1.431       .  S
C902        C903   1.409       .  A
C902        H907   1.083       .  S
C904        N905   1.437       .  S
N905        O909   1.262       .  A
N905        O910   1.262       .  A
N908        O911   1.261       .  A
