geometry optimzed in LAMMPS
_audit_creation_date              2020-12-01 
_audit_creation_method            'lammps2cif' 
_symmetry_space_group_name_H-M    'P1' 
_symmetry_Int_Tables_number       1 
_symmetry_cell_setting            triclinic 
loop_ 
_symmetry_equiv_pos_as_xyz 
  x,y,z 
_cell_length_a                    35.5920611 
_cell_length_b                    48.60920349672717 
_cell_length_c                    29.04576452139268 
_cell_angle_alpha                 89.73061181975426 
_cell_angle_beta                  90.18302602788486 
_cell_angle_gamma                 89.8583330653443 
loop_ 
_atom_site_label 
_atom_site_type_symbol 
_atom_site_fract_x 
_atom_site_fract_y 
_atom_site_fract_z 
_atom_site_charge 
O1          O  0.66813990  0.26382984  0.99512579    -0.73400
O2          O  0.55405089  0.26186332  0.99328434    -0.74300
O3          O  0.61160135  0.25025379  0.06059566    -0.63000
O4          O  0.61306825  0.27507227  0.92832862    -0.71400
O5          O  0.61462307  0.23174419  0.90472497    -0.70900
O6          O  0.61241447  0.20708401  0.03654294    -0.62200
O7          O  0.55525922  0.21866953  0.96934138    -0.74700
O8          O  0.66975753  0.22012564  0.97346878    -0.73500
Cu9        Cu  0.61136373  0.26425746  0.99505670     1.04600
Cu10       Cu  0.61282380  0.21791668  0.97015590     1.04300
C11         C  0.68681593  0.24224666  0.98480280     0.92800
C12         C  0.53653370  0.23997623  0.98154075     0.92000
C13         C  0.61328113  0.22448099  0.06936631     0.84100
C14         C  0.61615301  0.25748639  0.89593444     0.90400
O15         O  0.41849346  0.24919566  0.06195782    -0.73400
O16         O  0.41747962  0.27210452  0.92819043    -0.74300
O17         O  0.36185762  0.26103460  0.99459028    -0.63000
O18         O  0.47610286  0.26092768  0.99423094    -0.71400
O19         O  0.47666444  0.21739614  0.97201066    -0.70900
O20         O  0.36203173  0.21704608  0.97458507    -0.62200
O21         O  0.41797383  0.22837112  0.90658712    -0.74700
O22         O  0.41944229  0.20575947  0.03940466    -0.73500
Cu23       Cu  0.41869222  0.26232973  0.99551566     1.04600
Cu24       Cu  0.41917685  0.21564043  0.97247748     1.04300
C25         C  0.41772050  0.22349644  0.07166819     0.92800
C26         C  0.41662156  0.25394059  0.89648200     0.92000
C27         C  0.34402839  0.23904313  0.98464802     0.84100
C28         C  0.49450182  0.23937798  0.98253977     0.90400
C29         C  0.43797561  0.30581359  0.72219161     0.86100
C30         C  0.48058050  0.30337396  0.72112515    -0.54200
C31         C  0.49899759  0.31950704  0.68959598     0.09000
C32         C  0.47108308  0.33612762  0.65896224     0.20000
C33         C  0.43198907  0.33682595  0.72734055    -0.54900
C34         C  0.44830726  0.35310266  0.69417784     0.09100
C35         C  0.42544129  0.29914570  0.67358568    -0.54400
C36         C  0.44228498  0.31474196  0.64028421     0.09700
H37         H  0.49426563  0.29001302  0.74557921     0.14200
H38         H  0.48472425  0.34855689  0.63171959    -0.00100
H39         H  0.41975355  0.34510287  0.75805331     0.14500
H40         H  0.40451651  0.28355507  0.66602329     0.14300
C41         C  0.43298016  0.17984995  0.25592329     0.86100
C42         C  0.47534486  0.18008119  0.25107784    -0.54200
C43         C  0.49554504  0.16870947  0.28644721     0.09000
C44         C  0.46980740  0.15663802  0.32445935     0.20000
C45         C  0.42282513  0.14978672  0.26487262    -0.54900
C46         C  0.44347361  0.13651158  0.29842400     0.09100
C47         C  0.42524741  0.19333549  0.30213373    -0.54400
C48         C  0.44367321  0.18108535  0.33838547     0.09700
H49         H  0.48732082  0.18901823  0.22040664     0.14200
H50         H  0.48498376  0.14711341  0.35385079    -0.00100
H51         H  0.39940936  0.14058196  0.24727559     0.14500
H52         H  0.40508062  0.20992430  0.30644394     0.14300
N53         N  0.38882624  0.29643832  0.54045573    -0.27700
N54         N  0.42163973  0.28529123  0.53014983    -0.35600
C55         C  0.44759720  0.29397613  0.56070160     0.00600
C56         C  0.43052081  0.31151526  0.59181700     0.06700
C57         C  0.39323717  0.31243399  0.57770353    -0.06400
H58         H  0.47541793  0.28514096  0.56402523     0.07300
H59         H  0.37007705  0.32093282  0.59711262     0.08500
Cu60       Cu  0.42724455  0.25315992  0.48354509     0.44200
Cu61       Cu  0.33741182  0.28342142  0.51324215     0.42000
Cu62       Cu  0.33902299  0.21653182  0.46254698     0.43900
N63         N  0.42284850  0.21875542  0.44145585    -0.35100
N64         N  0.39124657  0.20490407  0.43561230    -0.29300
C65         C  0.39650340  0.18628666  0.40215051    -0.05400
C66         C  0.43298395  0.18834066  0.38585677     0.06800
C67         C  0.44872228  0.20935179  0.41151490     0.00600
H68         H  0.37400344  0.17467210  0.38642683     0.08200
H69         H  0.47542882  0.21923478  0.40513271     0.07300
N70         N  0.28891170  0.23695240  0.47895918    -0.36500
N71         N  0.28851723  0.26253140  0.49428987    -0.28700
C72         C  0.25258239  0.27113860  0.49771533    -0.04000
C73         C  0.22910071  0.24982895  0.48472033     0.04700
C74         C  0.25312843  0.22840408  0.47327337     0.02700
H75         H  0.24412229  0.29121238  0.50988646     0.07900
H76         H  0.24517712  0.20834898  0.46055682     0.06700
C77         C  0.43650292  0.42689246  0.73921448     0.86100
C78         C  0.42571228  0.43982741  0.69303633    -0.54200
C79         C  0.44365634  0.42794572  0.65624270     0.09000
C80         C  0.47179387  0.40455381  0.66960423     0.20000
C81         C  0.42789874  0.39658318  0.73207110    -0.54900
C82         C  0.44776918  0.38392661  0.69789713     0.09100
C83         C  0.47893774  0.42922707  0.74108674    -0.54400
C84         C  0.49835763  0.41771773  0.70550583     0.09700
H85         H  0.40438553  0.45566544  0.68908358     0.14200
H86         H  0.48638073  0.39534596  0.63978523    -0.00100
H87         H  0.40713229  0.38653982  0.75334636     0.14500
H88         H  0.49141496  0.44005274  0.76957358     0.14300
C89         C  0.43428992  0.05957734  0.26779843     0.86100
C90         C  0.42549292  0.04934951  0.31611226    -0.54200
C91         C  0.44328723  0.06358378  0.35030971     0.09000
C92         C  0.46956656  0.08696466  0.33275548     0.20000
C93         C  0.42517130  0.09020040  0.26887398    -0.54900
C94         C  0.44378320  0.10537615  0.30156149     0.09100
C95         C  0.47678126  0.05923055  0.26435426    -0.54400
C96         C  0.49632738  0.07221448  0.29861450     0.09700
H97         H  0.40611272  0.03258835  0.32288579     0.14200
H98         H  0.48417892  0.09822402  0.36063544    -0.00100
H99         H  0.40773979  0.09931105  0.24296484     0.14500
H100        H  0.48927620  0.04963583  0.23466606     0.14300
N101        N  0.39414308  0.04091591  0.45056541    -0.27700
N102        N  0.42596652  0.02715462  0.45591403    -0.35600
C103        C  0.45100656  0.03645477  0.42473546     0.00600
C104        C  0.43441537  0.05730590  0.39882810     0.06700
C105        C  0.39835302  0.05931930  0.41632790    -0.06400
H106        H  0.47758102  0.02650475  0.41759504     0.07300
H107        H  0.37526669  0.07057326  0.40080450     0.08500
Cu108      Cu  0.43092972  0.49293329  0.49929126     0.44200
Cu109      Cu  0.34275912  0.02923668  0.47893251     0.42000
Cu110      Cu  0.34027386  0.46205654  0.52757014     0.43900
N111        N  0.42427876  0.46105888  0.54697045    -0.35100
N112        N  0.39134954  0.44974201  0.55619628    -0.29300
C113        C  0.39494305  0.43359303  0.59359041    -0.05400
C114        C  0.43177614  0.43452660  0.60877885     0.06800
C115        C  0.44961317  0.45222080  0.57844589     0.00600
H116        H  0.37153630  0.42438793  0.61163465     0.08200
H117        H  0.47763249  0.46052105  0.58217816     0.07300
N118        N  0.29168024  0.48391590  0.51099339    -0.36500
N119        N  0.29261714  0.50969741  0.49638174    -0.28700
C120        C  0.25711353  0.01925318  0.49262089    -0.04000
C121        C  0.23270283  0.49830000  0.50478276     0.04700
C122        C  0.25559623  0.47616710  0.51603562     0.02700
H123        H  0.24962261  0.03968770  0.48080631     0.07900
H124        H  0.24669499  0.45614193  0.52815531     0.06700
O125        O  0.60968188  0.45796220  0.95122078    -0.73400
O126        O  0.61131817  0.48102469  0.08346855    -0.74300
O127        O  0.55260778  0.46954775  0.01820855    -0.63000
O128        O  0.66674433  0.46945760  0.01548183    -0.71400
O129        O  0.66624794  0.01341541  0.99466125    -0.70900
O130        O  0.55211849  0.01288588  0.99426360    -0.62200
O131        O  0.61058518  0.02460484  0.06049602    -0.74700
O132        O  0.61023599  0.00128672  0.92740666    -0.73500
Cu133      Cu  0.60985788  0.46801277  0.01784672     1.04600
Cu134      Cu  0.60948959  0.01458130  0.99344291     1.04300
C135        C  0.61153524  0.47557925  0.91847870     0.92800
C136        C  0.61271560  0.00663527  0.09273444     0.92000
C137        C  0.53429399  0.99118635  0.00646666     0.84100
C138        C  0.68435639  0.99146088  0.00484108     0.90400
O139        O  0.36078421  0.46797596  0.01860726    -0.73400
O140        O  0.47479465  0.46949957  0.02038251    -0.74300
O141        O  0.41651636  0.48192209  0.08519242    -0.63000
O142        O  0.41788733  0.45572657  0.95509221    -0.71400
O143        O  0.41566012  0.99841929  0.92813832    -0.70900
O144        O  0.41581457  0.02493750  0.05935765    -0.62200
O145        O  0.47382224  0.01225584  0.99359802    -0.74700
O146        O  0.35978285  0.01141548  0.99471728    -0.73500
Cu147      Cu  0.41765290  0.46732457  0.02068114     1.04600
Cu148      Cu  0.41640712  0.01328923  0.99308208     1.04300
C149        C  0.34245530  0.98951428  0.00659149     0.92800
C150        C  0.49237603  0.99101008  0.00687651     0.92000
C151        C  0.41487216  0.00772984  0.09279310     0.84100
C152        C  0.41607768  0.47247418  0.92110605     0.90400
C153        C  0.60279469  0.42961803  0.73613687     0.86100
C154        C  0.56040356  0.42929503  0.74062171    -0.54200
C155        C  0.54065556  0.41835604  0.70469310     0.09000
C156        C  0.56689091  0.40713161  0.66667570     0.20000
C157        C  0.61393871  0.39987718  0.72627634    -0.54900
C158        C  0.59343326  0.38688990  0.69254462     0.09100
C159        C  0.61033264  0.44393989  0.69036911    -0.54400
C160        C  0.59267387  0.43192952  0.65355699     0.09700
H161        H  0.54812558  0.43730629  0.77167792     0.14200
H162        H  0.55209223  0.39791128  0.63692401    -0.00100
H163        H  0.63797115  0.39075761  0.74301565     0.14500
H164        H  0.63045151  0.46056917  0.68667194     0.14300
C165        C  0.60018369  0.05829631  0.26713953     0.86100
C166        C  0.55767086  0.05561512  0.26778572    -0.54200
C167        C  0.53875640  0.07102376  0.29959510     0.09000
C168        C  0.56612329  0.08743578  0.33086595     0.20000
C169        C  0.60579172  0.08940551  0.26300288    -0.54900
C170        C  0.58906919  0.10507297  0.29650588     0.09100
C171        C  0.61248070  0.05092169  0.31575004    -0.54400
C172        C  0.59499391  0.06588586  0.34924575     0.09700
H173        H  0.54439880  0.04226818  0.24315118     0.14200
H174        H  0.55202957  0.09935196  0.35828286    -0.00100
H175        H  0.61797532  0.09836867  0.23277328     0.14500
H176        H  0.63338013  0.03517899  0.32320976     0.14300
N177        N  0.64674696  0.04616112  0.44965285    -0.27700
N178        N  0.61475221  0.03314171  0.45715942    -0.35600
C179        C  0.58904246  0.04190630  0.42620940     0.00600
C180        C  0.60539826  0.06146904  0.39785261     0.06700
C181        C  0.64201142  0.06348681  0.41390157    -0.06400
H182        H  0.56216875  0.03206767  0.42068497     0.07300
H183        H  0.66490648  0.07379264  0.39655539     0.08500
Cu184      Cu  0.60993344  0.49961725  0.50147462     0.44200
Cu185      Cu  0.69846721  0.03447838  0.47774670     0.42000
Cu186      Cu  0.69950564  0.46814830  0.53158877     0.43900
N187        N  0.61508259  0.46683937  0.54735556    -0.35100
N188        N  0.64769521  0.45512353  0.55737754    -0.29300
C189        C  0.64280679  0.43790038  0.59315956    -0.05400
C190        C  0.60543788  0.43862409  0.60651284     0.06800
C191        C  0.58875860  0.45735582  0.57671847     0.00600
H192        H  0.66563180  0.42818538  0.61188014     0.08200
H193        H  0.56077789  0.46589614  0.57971534     0.07300
N194        N  0.74853643  0.48918277  0.51378797    -0.36500
N195        N  0.74810461  0.01453037  0.49700161    -0.28700
C196        C  0.78378793  0.02333117  0.49212497    -0.04000
C197        C  0.80784085  0.50232844  0.50576729     0.04700
C198        C  0.78450512  0.48097761  0.51914497     0.02700
H199        H  0.79166509  0.04320809  0.47835092     0.07900
H200        H  0.79305833  0.46114084  0.53265934     0.06700
C201        C  0.60393090  0.30954435  0.72118381     0.86100
C202        C  0.61306314  0.30058815  0.67233085    -0.54200
C203        C  0.59456147  0.31530194  0.63892185     0.09000
C204        C  0.56756504  0.33777831  0.65760640     0.20000
C205        C  0.61194585  0.34031911  0.72163092    -0.54900
C206        C  0.59299421  0.35583464  0.68938939     0.09100
C207        C  0.56143400  0.30841970  0.72460156    -0.54400
C208        C  0.54137805  0.32175661  0.69096580     0.09700
H209        H  0.63284690  0.28419938  0.66465979     0.14200
H210        H  0.55247907  0.34939786  0.63028938    -0.00100
H211        H  0.62913268  0.34920167  0.74780486     0.14500
H212        H  0.54928212  0.29788564  0.75364208     0.14300
C213        C  0.59965339  0.17952660  0.25262359     0.86100
C214        C  0.60934285  0.19220212  0.29902801    -0.54200
C215        C  0.59164524  0.17983384  0.33554348     0.09000
C216        C  0.56456698  0.15603481  0.32179903     0.20000
C217        C  0.60922121  0.14915499  0.25981481    -0.54900
C218        C  0.58937914  0.13597749  0.29365730     0.09100
C219        C  0.55703953  0.18063939  0.24984860    -0.54400
C220        C  0.53782817  0.16882509  0.28555874     0.09700
H221        H  0.62986324  0.20852301  0.30306435     0.14200
H222        H  0.55018323  0.14639288  0.35147506    -0.00100
H223        H  0.63177890  0.13936855  0.24145671     0.14500
H224        H  0.54419265  0.19055976  0.22044442     0.14300
N225        N  0.64160021  0.29439959  0.53658363    -0.27700
N226        N  0.60986770  0.28051902  0.53217888    -0.35600
C227        C  0.58545691  0.28934650  0.56434636     0.00600
C228        C  0.60238719  0.30989736  0.59002435     0.06700
C229        C  0.63791721  0.31239005  0.57124719    -0.06400
H230        H  0.55930554  0.27910692  0.57241768     0.07300
H231        H  0.66120539  0.32350723  0.58624160     0.08500
Cu232      Cu  0.60406245  0.24628034  0.48965132     0.44200
Cu233      Cu  0.69287873  0.28313742  0.50748787     0.42000
Cu234      Cu  0.69462283  0.21571026  0.46223647     0.43900
N235        N  0.61053314  0.21387979  0.44346636    -0.35100
N236        N  0.64359965  0.20263191  0.43460784    -0.29300
C237        C  0.64009022  0.18596880  0.39811874    -0.05400
C238        C  0.60316303  0.18647216  0.38306342     0.06800
C239        C  0.58520556  0.20452208  0.41259587     0.00600
H240        H  0.66360794  0.17679119  0.38028013     0.08200
H241        H  0.55710550  0.21274309  0.40848982     0.07300
N242        N  0.74363757  0.23715215  0.47797334    -0.36500
N243        N  0.74303733  0.26309319  0.49136375    -0.28700
C244        C  0.77867909  0.27221237  0.49523023    -0.04000
C245        C  0.80287716  0.25080726  0.48442007     0.04700
C246        C  0.77963837  0.22887303  0.47383167     0.02700
H247        H  0.78642864  0.29266080  0.50625855     0.07900
H248        H  0.78827268  0.20859246  0.46282320     0.06700
O249        O  0.11303908  0.24221571  0.56073275    -0.73400
O250        O  0.11361452  0.21601925  0.42920739    -0.74300
O251        O  0.16939409  0.22830286  0.49493401    -0.63000
O252        O  0.05501971  0.22944366  0.49449215    -0.71400
O253        O  0.05514983  0.27237664  0.46860118    -0.70900
O254        O  0.16976038  0.27186077  0.47180408    -0.62200
O255        O  0.11408409  0.25922065  0.40426335    -0.74700
O256        O  0.11234935  0.28512597  0.53482546    -0.73500
Cu257      Cu  0.11250749  0.22748506  0.49567587     1.04600
Cu258      Cu  0.11268324  0.27360566  0.46898324     1.04300
C259        C  0.11363493  0.26809328  0.56844763     0.92800
C260        C  0.11548894  0.23344784  0.39614705     0.92000
C261        C  0.18749194  0.24999025  0.48369038     0.84100
C262        C  0.03694013  0.25101224  0.48166421     0.90400
O263        O  0.86257595  0.22935807  0.49569388    -0.73400
O264        O  0.97684531  0.22981478  0.49554727    -0.74300
O265        O  0.91889139  0.24251189  0.56207480    -0.63000
O266        O  0.91823331  0.21702466  0.43047572    -0.71400
O267        O  0.91744265  0.26016528  0.40523386    -0.70900
O268        O  0.91945789  0.28548413  0.53654929    -0.62200
O269        O  0.97659472  0.27276269  0.46972390    -0.74700
O270        O  0.86206079  0.27296029  0.47275801    -0.73500
Cu271      Cu  0.91939884  0.22819071  0.49679488     1.04600
Cu272      Cu  0.91907746  0.27434148  0.47025645     1.04300
C273        C  0.84442772  0.25109664  0.48433568     0.92800
C274        C  0.99485945  0.25121674  0.48226088     0.92000
C275        C  0.91785675  0.26835420  0.57002256     0.84100
C276        C  0.91612898  0.23435917  0.39731638     0.90400
C277        C  0.93164151  0.31310266  0.75320152     0.86100
C278        C  0.92233971  0.30033607  0.79977514    -0.54200
C279        C  0.94070489  0.31240312  0.83604912     0.09000
C280        C  0.96797635  0.33611564  0.82180175     0.20000
C281        C  0.92259282  0.34354993  0.76042039    -0.54900
C282        C  0.94290789  0.35650385  0.79418165     0.09100
C283        C  0.97409959  0.31152423  0.74997121    -0.54400
C284        C  0.99402226  0.32341543  0.78492514     0.09700
H285        H  0.90141920  0.28432233  0.80420777     0.14200
H286        H  0.98299796  0.34554183  0.85117577    -0.00100
H287        H  0.90023265  0.35338550  0.74140622     0.14500
H288        H  0.98633733  0.30113900  0.72088833     0.14300
C289        C  0.93365040  0.18158828  0.22340446     0.86100
C290        C  0.92257365  0.19050239  0.17502795    -0.54200
C291        C  0.94014062  0.17614446  0.14087826     0.09000
C292        C  0.96811378  0.15373721  0.15846584     0.20000
C293        C  0.92659718  0.15065302  0.22472993    -0.54900
C294        C  0.94412864  0.13543593  0.19127797     0.09100
C295        C  0.97616645  0.18331914  0.22471252    -0.54400
C296        C  0.99528544  0.16948321  0.19103427     0.09700
H297        H  0.90219612  0.20670559  0.16821267     0.14200
H298        H  0.98234283  0.14226765  0.13059589    -0.00100
H299        H  0.91169964  0.14140954  0.25269459     0.14500
H300        H  0.98894381  0.19443907  0.25258048     0.14300
N301        N  0.88938167  0.19858115  0.04129066    -0.27700
N302        N  0.92165370  0.21136339  0.03442005    -0.35600
C303        C  0.94708157  0.20175156  0.06512021     0.00600
C304        C  0.93021556  0.18181349  0.09241845     0.06700
C305        C  0.89363877  0.18055932  0.07612559    -0.06400
H306        H  0.97423357  0.21107069  0.07111358     0.07300
H307        H  0.87046600  0.17019102  0.09280404     0.08500
Cu308      Cu  0.92703509  0.24519671  0.99027283     0.44200
Cu309      Cu  0.83787292  0.21112087  0.01387839     0.42000
Cu310      Cu  0.83679986  0.27765924  0.96271913     0.43900
N311        N  0.92100055  0.27787188  0.94378407    -0.35100
N312        N  0.88832028  0.28988774  0.93505272    -0.29300
C313        C  0.89237599  0.30688161  0.89879646    -0.05400
C314        C  0.92923604  0.30577802  0.88370079     0.06800
C315        C  0.94652902  0.28700050  0.91300460     0.00600
H316        H  0.86915456  0.31674347  0.88106303     0.08200
H317        H  0.97428286  0.27823912  0.90885080     0.07300
N318        N  0.78755853  0.25666322  0.97979251    -0.36500
N319        N  0.78809598  0.23112117  0.99561239    -0.28700
C320        C  0.75249751  0.22198379  0.99943853    -0.04000
C321        C  0.72831868  0.24293222  0.98603874     0.04700
C322        C  0.75152662  0.26467337  0.97402717     0.02700
H323        H  0.74475944  0.20178671  0.01195502     0.07900
H324        H  0.74286646  0.28455234  0.96079258     0.06700
C325        C  0.93403641  0.43431402  0.76673436     0.86100
C326        C  0.97656302  0.43549796  0.76547380    -0.54200
C327        C  0.99554773  0.42074197  0.79840079     0.09000
C328        C  0.96810891  0.40493635  0.83067457     0.20000
C329        C  0.92614734  0.40344155  0.76435060    -0.54900
C330        C  0.94368853  0.38748577  0.79724833     0.09100
C331        C  0.92335220  0.44254533  0.81523999    -0.54400
C332        C  0.94044771  0.42727485  0.84893341     0.09700
H333        H  0.98944227  0.44714413  0.73832050     0.14200
H334        H  0.98219892  0.39289348  0.85824401    -0.00100
H335        H  0.91062263  0.39485311  0.73626730     0.14500
H336        H  0.90309943  0.45870873  0.82245866     0.14300
C337        C  0.93210229  0.06080211  0.23453800     0.86100
C338        C  0.97455018  0.05948642  0.23844731    -0.54200
C339        C  0.99442888  0.07109320  0.20328161     0.09000
C340        C  0.96839225  0.08406541  0.16614189     0.20000
C341        C  0.92269111  0.09113405  0.22666974    -0.54900
C342        C  0.94327939  0.10436108  0.19345722     0.09100
C343        C  0.92303097  0.04800443  0.18814698    -0.54400
C344        C  0.94112731  0.06035041  0.15189070     0.09700
H345        H  0.98684906  0.04969372  0.26831716     0.14200
H346        H  0.98328657  0.09367199  0.13679101    -0.00100
H347        H  0.89948328  0.10060219  0.24433884     0.14500
H348        H  0.90213957  0.03197182  0.18376271     0.14300
N349        N  0.88681550  0.44735452  0.94691860    -0.27700
N350        N  0.91895341  0.45986368  0.95583363    -0.35600
C351        C  0.94525405  0.45077970  0.92621122     0.00600
C352        C  0.92922658  0.43145482  0.89726516     0.06700
C353        C  0.89210356  0.42997598  0.91163817    -0.06400
H354        H  0.97249831  0.46026498  0.92189171     0.07300
H355        H  0.86941182  0.42002604  0.89330158     0.08500
Cu356      Cu  0.92352814  0.49312577  0.00038851     0.44200
Cu357      Cu  0.83474066  0.45969152  0.97315136     0.42000
Cu358      Cu  0.83450898  0.02543857  0.02903098     0.43900
N359        N  0.91885720  0.02604318  0.04566094    -0.35100
N360        N  0.88646301  0.03816314  0.05492301    -0.29300
C361        C  0.89153979  0.05541972  0.09038800    -0.05400
C362        C  0.92879638  0.05427114  0.10443687     0.06800
C363        C  0.94520995  0.03527450  0.07527304     0.00600
H364        H  0.86879998  0.06532762  0.10864814     0.08200
H365        H  0.97292499  0.02632939  0.07901684     0.07300
N366        N  0.78530154  0.00464149  0.01122415    -0.36500
N367        N  0.78539765  0.47963788  0.99351481    -0.28700
C368        C  0.74960266  0.47092598  0.98920376    -0.04000
C369        C  0.72583899  0.49164227  0.00415770     0.04700
C370        C  0.74944160  0.01273573  0.01766195     0.02700
H371        H  0.74143331  0.45126020  0.97509325     0.07900
H372        H  0.74116055  0.03231745  0.03205824     0.06700
O373        O  0.17269777  0.47747053  0.49540650    -0.73400
O374        O  0.05884019  0.47936036  0.49577204    -0.74300
O375        O  0.11630536  0.48994690  0.42864276    -0.63000
O376        O  0.11716200  0.46711837  0.56181411    -0.71400
O377        O  0.11826809  0.51070874  0.58405105    -0.70900
O378        O  0.11723858  0.03354352  0.45086255    -0.62200
O379        O  0.05981271  0.02295234  0.51798415    -0.74700
O380        O  0.17408371  0.02143154  0.51575754    -0.73500
Cu381      Cu  0.11598934  0.47698013  0.49471095     1.04600
Cu382      Cu  0.11720017  0.02369157  0.51792768     1.04300
C383        C  0.19124374  0.49914220  0.50531291     0.92800
C384        C  0.04127029  0.50137029  0.50684264     0.92000
C385        C  0.11795765  0.01560687  0.41881375     0.84100
C386        C  0.11930873  0.48505041  0.59378110     0.90400
O387        O  0.86721577  0.02445713  0.51551307    -0.73400
O388        O  0.98150034  0.02369864  0.51806323    -0.74300
O389        O  0.92418876  0.03533234  0.45091228    -0.63000
O390        O  0.92276544  0.51271870  0.58354068    -0.71400
O391        O  0.92297421  0.46914133  0.56104976    -0.70900
O392        O  0.92281389  0.49191747  0.42802044    -0.62200
O393        O  0.98106397  0.48027541  0.49489560    -0.74700
O394        O  0.86712215  0.48039528  0.49551472    -0.73500
Cu395      Cu  0.92417693  0.02558344  0.51772347     1.04600
Cu396      Cu  0.92379056  0.47891939  0.49413511     1.04300
C397        C  0.84932471  0.50242412  0.50553054     0.92800
C398        C  0.99935822  0.50181177  0.50662729     0.92000
C399        C  0.92184948  0.01764689  0.41861768     0.84100
C400        C  0.92084577  0.48708463  0.59297608     0.90400
C401        C  0.09808964  0.31308776  0.75139370     0.86100
C402        C  0.05560878  0.31343012  0.74740920    -0.54200
C403        C  0.03633824  0.32390770  0.78402990     0.09000
C404        C  0.06312378  0.33497211  0.82173288     0.20000
C405        C  0.10945348  0.34253614  0.76168268    -0.54900
C406        C  0.08947366  0.35534362  0.79577944     0.09100
C407        C  0.10630982  0.29825677  0.79676343    -0.54400
C408        C  0.08879647  0.30985527  0.83398867     0.09700
H409        H  0.04288076  0.30551898  0.71643679     0.14200
H410        H  0.04873822  0.34400023  0.85187983    -0.00100
H411        H  0.13225065  0.35182575  0.74283556     0.14500
H412        H  0.12617509  0.28136801  0.79999732     0.14300
C413        C  0.09991840  0.18129317  0.22213800     0.86100
C414        C  0.05745049  0.18458504  0.22217557    -0.54200
C415        C  0.03775854  0.16976580  0.19016376     0.09000
C416        C  0.06434139  0.15282430  0.15867741     0.20000
C417        C  0.10485604  0.15018951  0.22608202    -0.54900
C418        C  0.08747976  0.13478886  0.19276720     0.09100
C419        C  0.11165721  0.18858225  0.17328309    -0.54400
C420        C  0.09329001  0.17398731  0.13989753     0.09700
H421        H  0.04496475  0.19766090  0.24766033     0.14200
H422        H  0.04965562  0.14109027  0.13145011    -0.00100
H423        H  0.11695280  0.14108139  0.25631631     0.14500
H424        H  0.13280599  0.20399746  0.16561466     0.14300
N425        N  0.14270836  0.19299400  0.03743576    -0.27700
N426        N  0.10985410  0.20479527  0.02899883    -0.35600
C427        C  0.08505364  0.19625508  0.06108031     0.00600
C428        C  0.10305141  0.17815415  0.09100768     0.06700
C429        C  0.13950911  0.17673411  0.07471946    -0.06400
H430        H  0.05757899  0.20534943  0.06598824     0.07300
H431        H  0.16323215  0.16765226  0.09261146     0.08500
Cu432      Cu  0.10320561  0.23709055  0.98181678     0.44200
Cu433      Cu  0.19366553  0.20544612  0.00912240     0.42000
Cu434      Cu  0.19261162  0.27217818  0.95964891     0.43900
N435        N  0.10868875  0.27094356  0.93764084    -0.35100
N436        N  0.14081477  0.28411358  0.93152058    -0.29300
C437        C  0.13634296  0.30263218  0.89742552    -0.05400
C438        C  0.09981615  0.30133399  0.88102685     0.06800
C439        C  0.08318242  0.28076710  0.90714987     0.00600
H440        H  0.15922667  0.31391277  0.88185387     0.08200
H441        H  0.05589271  0.27166408  0.90115769     0.07300
N442        N  0.24268260  0.25190974  0.97713377    -0.36500
N443        N  0.24293388  0.22623339  0.99230940    -0.28700
C444        C  0.27881707  0.21765811  0.99696592    -0.04000
C445        C  0.30241634  0.23910210  0.98477722     0.04700
C446        C  0.27849741  0.26055757  0.97259371     0.02700
H447        H  0.28713011  0.19749976  0.00928317     0.07900
H448        H  0.28656577  0.28069952  0.96013650     0.06700
C449        C  0.10037528  0.43307970  0.76865111     0.86100
C450        C  0.11031845  0.44117893  0.81766515    -0.54200
C451        C  0.09213835  0.42611874  0.85068719     0.09000
C452        C  0.06461313  0.40411762  0.83153415     0.20000
C453        C  0.10770172  0.40211138  0.76678216    -0.54900
C454        C  0.08930163  0.38635936  0.79905283     0.09100
C455        C  0.05784225  0.43484236  0.76614918    -0.54400
C456        C  0.03806742  0.42033812  0.79862055     0.09700
H457        H  0.13051662  0.45718369  0.82573044     0.14200
H458        H  0.04983847  0.39221945  0.85857636    -0.00100
H459        H  0.12363534  0.39335219  0.73934986     0.14500
H460        H  0.04560644  0.44679524  0.73875957     0.14300
C461        C  0.09903772  0.06013234  0.23622098     0.86100
C462        C  0.10807484  0.04759397  0.18965866    -0.54200
C463        C  0.08990393  0.06011218  0.15350139     0.09000
C464        C  0.06287553  0.08386127  0.16760846     0.20000
C465        C  0.10818866  0.09055870  0.22918649    -0.54900
C466        C  0.08782743  0.10384690  0.19560699     0.09100
C467        C  0.05639896  0.05915247  0.23959504    -0.54400
C468        C  0.03669298  0.07094163  0.20398607     0.09700
H469        H  0.12851279  0.03118685  0.18526744     0.14200
H470        H  0.04812587  0.09360076  0.13812429    -0.00100
H471        H  0.13076480  0.10038133  0.24728950     0.14500
H472        H  0.04391517  0.04950154  0.26932358     0.14300
N473        N  0.14085661  0.44465303  0.95365326    -0.27700
N474        N  0.10886461  0.45806168  0.95960982    -0.35600
C475        C  0.08412030  0.44996114  0.92721659     0.00600
C476        C  0.10110814  0.43041086  0.89962905     0.06700
C477        C  0.13706215  0.42772603  0.91751287    -0.06400
H478        H  0.05764704  0.46021493  0.92036735     0.07300
H479        H  0.16034760  0.41726849  0.90124817     0.08500
Cu480      Cu  0.10304801  0.49146270  0.00351252     0.44200
Cu481      Cu  0.19206793  0.45560164  0.98343104     0.42000
Cu482      Cu  0.19247671  0.02350833  0.02865345     0.43900
N483        N  0.10875976  0.02478481  0.04756553    -0.35100
N484        N  0.14143642  0.03678625  0.05541473    -0.29300
C485        C  0.13757551  0.05430078  0.09066961    -0.05400
C486        C  0.10080435  0.05348824  0.10597722     0.06800
C487        C  0.08334735  0.03441360  0.07788090     0.00600
H488        H  0.16091066  0.06413439  0.10793779     0.08200
H489        H  0.05571028  0.02568651  0.08286791     0.07300
N490        N  0.24157701  0.00223016  0.01315941    -0.36500
N491        N  0.24157842  0.47623769  0.99996444    -0.28700
C492        C  0.27742745  0.46751779  0.99609363    -0.04000
C493        C  0.30102643  0.98924848  0.00667472     0.04700
C494        C  0.27732598  0.01093367  0.01714430     0.02700
H495        H  0.28570006  0.44715598  0.98508831     0.07900
H496        H  0.28547180  0.03135436  0.02789003     0.06700
C497        C  0.13194970  0.06167634  0.31517484    -0.21700
C498        C  0.11584831  0.04611600  0.27920435    -0.09800
C499        C  0.10677417  0.01835534  0.28879126     0.29100
C500        C  0.10909320  0.00795871  0.33387253    -0.21700
C501        C  0.12083711  0.02486165  0.37023455    -0.09800
C502        C  0.13425741  0.05129637  0.35987678     0.29100
F503        F  0.14823894  0.06780322  0.39338437    -0.20300
H504        H  0.14036700  0.08275291  0.31098681     0.17500
H505        H  0.09947226  0.98722391  0.34071106     0.17500
F506        F  0.09160999  0.00220903  0.25560059    -0.20300
C507        C  0.10648440  0.48993665  0.67839809    -0.21700
C508        C  0.12328157  0.47558869  0.64204721    -0.09800
C509        C  0.14282441  0.45114186  0.65194736     0.29100
C510        C  0.14088697  0.43927965  0.69571964    -0.21700
C511        C  0.11774745  0.45079625  0.72999065    -0.09800
C512        C  0.10427153  0.47789743  0.72232808     0.29100
F513        F  0.08474594  0.49123394  0.75557632    -0.20300
H514        H  0.09272169  0.50949979  0.67209286     0.17500
H515        H  0.15625540  0.42041232  0.70111585     0.17500
F516        F  0.16285302  0.43814418  0.61876362    -0.20300
C517        C  0.90923181  0.06532954  0.31665463    -0.21700
C518        C  0.91585300  0.04805463  0.27853664    -0.09800
C519        C  0.92034801  0.01958145  0.28739822     0.29100
C520        C  0.92088601  0.00943875  0.33281816    -0.21700
C521        C  0.91732229  0.02740909  0.37038000    -0.09800
C522        C  0.90980250  0.05529977  0.36148369     0.29100
F523        F  0.90500536  0.07356935  0.39621787    -0.20300
H524        H  0.90717920  0.08737153  0.31329350     0.17500
H525        H  0.92608268  0.48771689  0.33852170     0.17500
F526        F  0.92824705  0.00197157  0.25261429    -0.20300
C527        C  0.89505137  0.44160426  0.69296545    -0.21700
C528        C  0.91776493  0.45252125  0.72817308    -0.09800
C529        C  0.93214292  0.47941683  0.72172901     0.29100
C530        C  0.93158526  0.49161191  0.67793755    -0.21700
C531        C  0.91534316  0.47766832  0.64077067    -0.09800
C532        C  0.89452155  0.45372530  0.64941816     0.29100
F533        F  0.87471587  0.44142729  0.61522638    -0.20300
H534        H  0.87915196  0.42295614  0.69749480     0.17500
H535        H  0.94619628  0.51086908  0.67246926     0.17500
F536        F  0.95135240  0.49212170  0.75603135    -0.20300
C537        C  0.89538109  0.18689993  0.29819806    -0.21700
C538        C  0.91696428  0.19880938  0.26269774    -0.09800
C539        C  0.92936375  0.22618982  0.26893241     0.29100
C540        C  0.92732063  0.23854921  0.31235504    -0.21700
C541        C  0.91201015  0.22412381  0.34975270    -0.09800
C542        C  0.89374300  0.19905651  0.34152723     0.29100
F543        F  0.87523804  0.18577921  0.37584666    -0.20300
H544        H  0.88099648  0.16759461  0.29416447     0.17500
H545        H  0.94008470  0.25851684  0.31740800     0.17500
F546        F  0.94755591  0.23966639  0.23458359    -0.20300
C547        C  0.91781070  0.26118983  0.65627839    -0.21700
C548        C  0.91443984  0.27883501  0.61793453    -0.09800
C549        C  0.90852620  0.30700240  0.62580441     0.29100
C550        C  0.90930539  0.31747836  0.67029740    -0.21700
C551        C  0.91528144  0.30037178  0.70914774    -0.09800
C552        C  0.91843375  0.27174742  0.70129611     0.29100
F553        F  0.92577471  0.25419998  0.73667188    -0.20300
H554        H  0.92194245  0.23931845  0.65140352     0.17500
H555        H  0.90852364  0.33958729  0.67287157     0.17500
F556        F  0.90397292  0.32502464  0.59034511    -0.20300
C557        C  0.13968860  0.19906584  0.34025188    -0.21700
C558        C  0.11985835  0.22350171  0.34842658    -0.09800
C559        C  0.10462792  0.23792089  0.31068323     0.29100
C560        C  0.10418885  0.22579190  0.26704977    -0.21700
C561        C  0.11754655  0.19869282  0.26080437    -0.09800
C562        C  0.13995403  0.18728064  0.29646583     0.29100
F563        F  0.16245363  0.16512831  0.28962281    -0.20300
H564        H  0.15472211  0.18888409  0.36802545     0.17500
H565        H  0.08910754  0.23614978  0.23950960     0.17500
F566        F  0.08719388  0.26250333  0.31659495    -0.20300
C567        C  0.11477790  0.30748238  0.62254926    -0.21700
C568        C  0.11583534  0.27896334  0.61614350    -0.09800
C569        C  0.11782788  0.26179062  0.65530621     0.29100
C570        C  0.11672025  0.27311832  0.69972514    -0.21700
C571        C  0.11376231  0.30177720  0.70624354    -0.09800
C572        C  0.11292448  0.31875605  0.66636388     0.29100
F573        F  0.10625001  0.34621542  0.66878594    -0.20300
H574        H  0.11310505  0.32136355  0.59332180     0.17500
H575        H  0.11538996  0.25922329  0.72885998     0.17500
F576        F  0.11894603  0.23402718  0.65091095    -0.20300
C577        C  0.63874930  0.03974056  0.14925590    -0.21700
C578        C  0.61776419  0.01593192  0.14070849    -0.09800
C579        C  0.60203147  0.00174261  0.17819129     0.29100
C580        C  0.60237933  0.01368975  0.22199933    -0.21700
C581        C  0.61685653  0.04045128  0.22850716    -0.09800
C582        C  0.63960343  0.05137490  0.19309923     0.29100
F583        F  0.66286377  0.07299439  0.20024654    -0.20300
H584        H  0.65411698  0.04963495  0.12164849     0.17500
H585        H  0.58705693  0.00359856  0.24944352     0.17500
F586        F  0.58338680  0.97772528  0.17186303    -0.20300
C587        C  0.62412044  0.43752463  0.86394724    -0.21700
C588        C  0.61616214  0.46544777  0.87054137    -0.09800
C589        C  0.61231298  0.48246827  0.83145901     0.29100
C590        C  0.61369572  0.47108383  0.78703927    -0.21700
C591        C  0.61867709  0.44249344  0.78032493    -0.09800
C592        C  0.62472411  0.42603631  0.82017600     0.29100
F593        F  0.62735479  0.39826051  0.81847490    -0.20300
H594        H  0.62791590  0.42387133  0.89318684     0.17500
H595        H  0.60732931  0.48433268  0.75796631     0.17500
F596        F  0.60465072  0.00966738  0.83598899    -0.20300
C597        C  0.42880634  0.00360696  0.17706978    -0.21700
C598        C  0.41192578  0.01795878  0.14044474    -0.09800
C599        C  0.39310039  0.04271577  0.14959281     0.29100
C600        C  0.39516006  0.05454052  0.19319485    -0.21700
C601        C  0.41765023  0.04259846  0.22811728    -0.09800
C602        C  0.43133776  0.01561760  0.22069402     0.29100
F603        F  0.45124439  0.00230096  0.25399829    -0.20300
H604        H  0.44230886  0.48394917  0.17122232     0.17500
H605        H  0.38032635  0.07365527  0.19775952     0.17500
F606        F  0.37348141  0.05596320  0.11596094    -0.20300
C607        C  0.42535526  0.43344399  0.86838385    -0.21700
C608        C  0.41536339  0.46105040  0.87386494    -0.09800
C609        C  0.40629663  0.47677028  0.83437837     0.29100
C610        C  0.40922157  0.46512749  0.79019306    -0.21700
C611        C  0.42120057  0.43767947  0.78478480    -0.09800
C612        C  0.42891917  0.42204145  0.82505256     0.29100
F613        F  0.44379543  0.39631826  0.82289924    -0.20300
H614        H  0.43278892  0.42076854  0.89782639     0.17500
H615        H  0.40442138  0.47813117  0.76043847     0.17500
F616        F  0.39574086  0.50349708  0.83826096    -0.20300
C617        C  0.42108563  0.23146429  0.15749539    -0.21700
C618        C  0.41445388  0.21378122  0.12019245    -0.09800
C619        C  0.40563672  0.18615553  0.12961512     0.29100
C620        C  0.40674409  0.17600644  0.17451094    -0.21700
C621        C  0.41628368  0.19296382  0.21213000    -0.09800
C622        C  0.42219518  0.22124640  0.20286837     0.29100
F623        F  0.43301984  0.23848280  0.23701953    -0.20300
H624        H  0.42758071  0.25292439  0.15140226     0.17500
H625        H  0.40332106  0.15408359  0.17815013     0.17500
F626        F  0.39773202  0.16825855  0.09517425    -0.20300
C627        C  0.43686978  0.26147456  0.76935251    -0.21700
C628        C  0.42093982  0.28761882  0.76033914    -0.09800
C629        C  0.39469343  0.29777408  0.79253766     0.29100
C630        C  0.39246160  0.28604614  0.83643639    -0.21700
C631        C  0.41412451  0.26290335  0.84796982    -0.09800
C632        C  0.43419996  0.24945449  0.81312208     0.29100
F633        F  0.45407723  0.22620384  0.82243047    -0.20300
H634        H  0.45482102  0.25176697  0.74410817     0.17500
H635        H  0.37433212  0.29542939  0.86184898     0.17500
F636        F  0.37111024  0.31887074  0.78207816    -0.20300
C637        C  0.62616437  0.17650702  0.17109720    -0.21700
C638        C  0.61536489  0.19298614  0.20880064    -0.09800
C639        C  0.60841079  0.22120452  0.20010018     0.29100
C640        C  0.60913396  0.23171354  0.15500056    -0.21700
C641        C  0.61669871  0.21440968  0.11752180    -0.09800
C642        C  0.62690457  0.18696537  0.12643471     0.29100
F643        F  0.63597150  0.16955980  0.09172326    -0.20300
H644        H  0.63103676  0.15471939  0.17423849     0.17500
H645        H  0.60170882  0.25307441  0.14923822     0.17500
F646        F  0.59689391  0.23799419  0.23450590    -0.20300
C647        C  0.60768955  0.25279015  0.81057057    -0.21700
C648        C  0.62214055  0.26728634  0.84827549    -0.09800
C649        C  0.64188339  0.29179456  0.84010033     0.29100
C650        C  0.64206659  0.30364561  0.79625979    -0.21700
C651        C  0.62094406  0.29194092  0.76017562    -0.09800
C652        C  0.60762486  0.26477533  0.76659752     0.29100
F653        F  0.58959212  0.25154020  0.73192803    -0.20300
H654        H  0.59395266  0.23316068  0.81565852     0.17500
H655        H  0.65701428  0.32273133  0.79239524     0.17500
F656        F  0.65999223  0.30486306  0.87489506    -0.20300
O657        O  0.66815496  0.76380646  0.99511603    -0.73400
O658        O  0.55406672  0.76185418  0.99327472    -0.74300
O659        O  0.61161686  0.75024933  0.06059403    -0.63000
O660        O  0.61309113  0.77504145  0.92830772    -0.71400
O661        O  0.61462956  0.73170740  0.90473122    -0.70900
O662        O  0.61241904  0.70707639  0.03655777    -0.62200
O663        O  0.55526340  0.71865555  0.96935577    -0.74700
O664        O  0.66976420  0.72009838  0.97347942    -0.73500
Cu665      Cu  0.61138116  0.76424094  0.99504509     1.04600
Cu666      Cu  0.61282901  0.71789532  0.97016829     1.04300
C667        C  0.68682657  0.74221943  0.98480488     0.92800
C668        C  0.53654322  0.73996713  0.98154460     0.92000
C669        C  0.61329241  0.72447735  0.06937436     0.84100
C670        C  0.61616781  0.75744715  0.89592477     0.90400
O671        O  0.41850890  0.74920479  0.06197826    -0.73400
O672        O  0.41748594  0.77210687  0.92821043    -0.74300
O673        O  0.36186772  0.76104883  0.99461441    -0.63000
O674        O  0.47611673  0.76092632  0.99424187    -0.71400
O675        O  0.47666659  0.71739501  0.97202056    -0.70900
O676        O  0.36203301  0.71705960  0.97461394    -0.62200
O677        O  0.41796591  0.72837322  0.90660773    -0.74700
O678        O  0.41945018  0.70576884  0.03942401    -0.73500
Cu679      Cu  0.41870469  0.76233602  0.99553463     1.04600
Cu680      Cu  0.41917777  0.71564642  0.97249778     1.04300
C681        C  0.41773390  0.72350557  0.07168805     0.92800
C682        C  0.41661260  0.75394253  0.89650328     0.92000
C683        C  0.34403369  0.73905921  0.98467267     0.84100
C684        C  0.49451028  0.73937444  0.98254798     0.90400
C685        C  0.43791325  0.80581738  0.72221999     0.86100
C686        C  0.48051762  0.80337272  0.72116817    -0.54200
C687        C  0.49894440  0.81949358  0.68962958     0.09000
C688        C  0.47103987  0.83611531  0.65898523     0.20000
C689        C  0.43193300  0.83683095  0.72735241    -0.54900
C690        C  0.44826458  0.85310023  0.69418919     0.09100
C691        C  0.42538619  0.79914256  0.67361433    -0.54400
C692        C  0.44223956  0.81473122  0.64031069     0.09700
H693        H  0.49419201  0.79001748  0.74564090     0.14200
H694        H  0.48468843  0.84853808  0.63173959    -0.00100
H695        H  0.41969465  0.84511444  0.75805749     0.14500
H696        H  0.40446044  0.78355319  0.66605386     0.14300
C697        C  0.43299834  0.67985646  0.25594135     0.86100
C698        C  0.47536326  0.68009522  0.25110249    -0.54200
C699        C  0.49556317  0.66872193  0.28647036     0.09000
C700        C  0.46982510  0.65664236  0.32447570     0.20000
C701        C  0.42285042  0.64979145  0.26488124    -0.54900
C702        C  0.44349757  0.63651561  0.29843243     0.09100
C703        C  0.42525655  0.69333585  0.30215472    -0.54400
C704        C  0.44368240  0.68108381  0.33840521     0.09700
H705        H  0.48733923  0.68903799  0.22043702     0.14200
H706        H  0.48500112  0.64711670  0.35386585    -0.00100
H707        H  0.39943312  0.64058791  0.24728407     0.14500
H708        H  0.40508496  0.70992090  0.30646701     0.14300
N709        N  0.38880461  0.79641070  0.54047559    -0.27700
N710        N  0.42162287  0.78526843  0.53017937    -0.35600
C711        C  0.44757323  0.79395942  0.56073530     0.00600
C712        C  0.43048524  0.81149750  0.59184277     0.06700
C713        C  0.39320400  0.81240938  0.57772098    -0.06400
H714        H  0.47539517  0.78512958  0.56406709     0.07300
H715        H  0.37003831  0.82090537  0.59712272     0.08500
Cu716      Cu  0.42723968  0.75313638  0.48358203     0.44200
Cu717      Cu  0.33739967  0.78338386  0.51325582     0.42000
Cu718      Cu  0.33902224  0.71649064  0.46259000     0.43900
N719        N  0.42284692  0.71873480  0.44148962    -0.35100
N720        N  0.39124917  0.70487838  0.43564436    -0.29300
C721        C  0.39651025  0.68626757  0.40217323    -0.05400
C722        C  0.43298908  0.68833122  0.38587755     0.06800
C723        C  0.44872204  0.70934078  0.41154263     0.00600
H724        H  0.37401316  0.67465062  0.38644658     0.08200
H725        H  0.47542380  0.71922950  0.40516204     0.07300
N726        N  0.28890573  0.73690868  0.47898948    -0.36500
N727        N  0.28850946  0.76249040  0.49430688    -0.28700
C728        C  0.25257514  0.77110016  0.49771595    -0.04000
C729        C  0.22909458  0.74978976  0.48472341     0.04700
C730        C  0.25312274  0.72836094  0.47329629     0.02700
H731        H  0.24411442  0.79117733  0.50987160     0.07900
H732        H  0.24517235  0.70830469  0.46058441     0.06700
C733        C  0.43649033  0.92689912  0.73920362     0.86100
C734        C  0.42569647  0.93982810  0.69302196    -0.54200
C735        C  0.44363540  0.92793858  0.65623029     0.09000
C736        C  0.47177072  0.90454544  0.66959896     0.20000
C737        C  0.42787965  0.89658980  0.73207445    -0.54900
C738        C  0.44774267  0.88392515  0.69790245     0.09100
C739        C  0.47892397  0.92923209  0.74106622    -0.54400
C740        C  0.49833977  0.91771244  0.70549347     0.09700
H741        H  0.40437366  0.95566812  0.68906701     0.14200
H742        H  0.48635447  0.89533112  0.63978316    -0.00100
H743        H  0.40711217  0.88655387  0.75335820     0.14500
H744        H  0.49140441  0.94006715  0.76954186     0.14300
C745        C  0.43430348  0.55958302  0.26780718     0.86100
C746        C  0.42550325  0.54935517  0.31612066    -0.54200
C747        C  0.44329845  0.56358824  0.35031964     0.09000
C748        C  0.46958136  0.58696741  0.33276797     0.20000
C749        C  0.42518870  0.59020639  0.26888574    -0.54900
C750        C  0.44380219  0.60538056  0.30157298     0.09100
C751        C  0.47679470  0.55923300  0.26436788    -0.54400
C752        C  0.49634137  0.57221575  0.29862902     0.09700
H753        H  0.40611962  0.53259501  0.32289301     0.14200
H754        H  0.48419402  0.59822581  0.36064896    -0.00100
H755        H  0.40775624  0.59931862  0.24298033     0.14500
H756        H  0.48929282  0.54963594  0.23467561     0.14300
N757        N  0.39415412  0.54092627  0.45057907    -0.27700
N758        N  0.42598011  0.52716911  0.45593436    -0.35600
C759        C  0.45101940  0.53646772  0.42475388     0.00600
C760        C  0.43442429  0.55731304  0.39883785     0.06700
C761        C  0.39836104  0.55932539  0.41633468    -0.06400
H762        H  0.47759622  0.52651949  0.41761838     0.07300
H763        H  0.37527374  0.57057440  0.40080628     0.08500
Cu764      Cu  0.43091237  0.99291492  0.49926483     0.44200
Cu765      Cu  0.34277167  0.52924348  0.47894283     0.42000
Cu766      Cu  0.34025035  0.96205028  0.52755989     0.43900
N767        N  0.42425774  0.96104293  0.54694957    -0.35100
N768        N  0.39132665  0.94973061  0.55618131    -0.29300
C769        C  0.39491933  0.93358432  0.59357917    -0.05400
C770        C  0.43175373  0.93451492  0.60876438     0.06800
C771        C  0.44959230  0.95220451  0.57842490     0.00600
H772        H  0.37151181  0.92438405  0.61162821     0.08200
H773        H  0.47761312  0.96050233  0.58215308     0.07300
N774        N  0.29165878  0.98391633  0.51099334    -0.36500
N775        N  0.29260051  0.00969798  0.49638253    -0.28700
C776        C  0.25712830  0.51924729  0.49261038    -0.04000
C777        C  0.23268372  0.99830946  0.50479801     0.04700
C778        C  0.25557317  0.97617287  0.51604367     0.02700
H779        H  0.24963380  0.53967998  0.48079314     0.07900
H780        H  0.24666823  0.95614877  0.52816428     0.06700
O781        O  0.60967635  0.95794410  0.95122955    -0.73400
O782        O  0.61132682  0.98100609  0.08347628    -0.74300
O783        O  0.55261067  0.96953685  0.01822222    -0.63000
O784        O  0.66674825  0.96942965  0.01548675    -0.71400
O785        O  0.66623458  0.51344383  0.99465845    -0.70900
O786        O  0.55210729  0.51289670  0.99424957    -0.62200
O787        O  0.61056658  0.52462378  0.06049065    -0.74700
O788        O  0.61023400  0.50130503  0.92739917    -0.73500
Cu789      Cu  0.60986029  0.96799387  0.01785517     1.04600
Cu790      Cu  0.60947750  0.51460046  0.99343572     1.04300
C791        C  0.61152917  0.97556078  0.91848690     0.92800
C792        C  0.61270208  0.50665380  0.09272828     0.92000
C793        C  0.53428699  0.49119503  0.00645083     0.84100
C794        C  0.68434722  0.49149104  0.00483584     0.90400
O795        O  0.36078782  0.96797395  0.01859024    -0.73400
O796        O  0.47479824  0.96949449  0.02039146    -0.74300
O797        O  0.41650906  0.98191063  0.08519221    -0.63000
O798        O  0.41790172  0.95573171  0.95508449    -0.71400
O799        O  0.41563930  0.49841147  0.92813494    -0.70900
O800        O  0.41581713  0.52494629  0.05934622    -0.62200
O801        O  0.47381226  0.51225811  0.99357655    -0.74700
O802        O  0.35977326  0.51141518  0.99472271    -0.73500
Cu803      Cu  0.41765635  0.96732110  0.02067668     1.04600
Cu804      Cu  0.41639736  0.51328988  0.99307360     1.04300
C805        C  0.34244872  0.48951416  0.00660476     0.92800
C806        C  0.49236917  0.49101487  0.00685987     0.92000
C807        C  0.41488184  0.50774209  0.09278718     0.84100
C808        C  0.41609925  0.97248282  0.92110257     0.90400
C809        C  0.60277814  0.92959012  0.73615075     0.86100
C810        C  0.56038569  0.92927806  0.74062317    -0.54200
C811        C  0.54063810  0.91834239  0.70469035     0.09000
C812        C  0.56687481  0.90710746  0.66668523     0.20000
C813        C  0.61390837  0.89984493  0.72630217    -0.54900
C814        C  0.59340000  0.88686054  0.69257244     0.09100
C815        C  0.61033105  0.94390591  0.69038200    -0.54400
C816        C  0.59267235  0.93189821  0.65356772     0.09700
H817        H  0.54810705  0.93729118  0.77167861     0.14200
H818        H  0.55207703  0.89788870  0.63693226    -0.00100
H819        H  0.63793461  0.89071664  0.74304392     0.14500
H820        H  0.63045407  0.96053292  0.68668810     0.14300
C821        C  0.60019506  0.55830493  0.26714435     0.86100
C822        C  0.55768397  0.55561730  0.26780287    -0.54200
C823        C  0.53877005  0.57102597  0.29961109     0.09000
C824        C  0.56613727  0.58744329  0.33087480     0.20000
C825        C  0.60579347  0.58941515  0.26300217    -0.54900
C826        C  0.58907480  0.60508161  0.29650959     0.09100
C827        C  0.61250253  0.55093507  0.31575314    -0.54400
C828        C  0.59501719  0.56589927  0.34925053     0.09700
H829        H  0.54440806  0.54226485  0.24317210     0.14200
H830        H  0.55204450  0.59935921  0.35829318    -0.00100
H831        H  0.61797109  0.59837952  0.23276834     0.14500
H832        H  0.63340744  0.53519612  0.32321020     0.14300
N833        N  0.64678211  0.54617651  0.44964791    -0.27700
N834        N  0.61478247  0.53316668  0.45716778    -0.35600
C835        C  0.58907008  0.54193455  0.42622445     0.00600
C836        C  0.60543021  0.56148837  0.39785541     0.06700
C837        C  0.64204769  0.56349896  0.41389243    -0.06400
H838        H  0.56219170  0.53210114  0.42071007     0.07300
H839        H  0.66494547  0.57379596  0.39653354     0.08500
Cu840      Cu  0.60990534  0.99959181  0.50147230     0.44200
Cu841      Cu  0.69849988  0.53447682  0.47772693     0.42000
Cu842      Cu  0.69949324  0.96816094  0.53162856     0.43900
N843        N  0.61506647  0.96681821  0.54736623    -0.35100
N844        N  0.64768621  0.95511578  0.55739737    -0.29300
C845        C  0.64280553  0.93789040  0.59317772    -0.05400
C846        C  0.60543447  0.93859830  0.60652352     0.06800
C847        C  0.58874507  0.95732355  0.57672417     0.00600
H848        H  0.66563525  0.92818518  0.61190308     0.08200
H849        H  0.56075729  0.96585188  0.57971428     0.07300
N850        N  0.74851945  0.98920618  0.51384576    -0.36500
N851        N  0.74812897  0.51450994  0.49695591    -0.28700
C852        C  0.78381459  0.52330363  0.49207275    -0.04000
C853        C  0.80782041  0.00236361  0.50583790     0.04700
C854        C  0.78449031  0.98101009  0.51921842     0.02700
H855        H  0.79169705  0.54318210  0.47831038     0.07900
H856        H  0.79304882  0.96117621  0.53274048     0.06700
C857        C  0.60387739  0.80950665  0.72119801     0.86100
C858        C  0.61301599  0.80056755  0.67233923    -0.54200
C859        C  0.59451564  0.81528996  0.63894132     0.09000
C860        C  0.56751513  0.83775760  0.65763972     0.20000
C861        C  0.61188108  0.84028393  0.72168078    -0.54900
C862        C  0.59294096  0.85580560  0.68943522     0.09100
C863        C  0.56138058  0.80837645  0.72460874    -0.54400
C864        C  0.54132617  0.82172753  0.69098744     0.09700
H865        H  0.63280384  0.78418301  0.66465633     0.14200
H866        H  0.55243061  0.84938385  0.63032929    -0.00100
H867        H  0.62904270  0.84916306  0.74788940     0.14500
H868        H  0.54922900  0.79782886  0.75363339     0.14300
C869        C  0.59967191  0.67953570  0.25264130     0.86100
C870        C  0.60936836  0.69220832  0.29904506    -0.54200
C871        C  0.59167052  0.67984115  0.33556176     0.09000
C872        C  0.56458548  0.65604527  0.32181799     0.20000
C873        C  0.60923418  0.64916311  0.25982969    -0.54900
C874        C  0.58939028  0.63598621  0.29366987     0.09100
C875        C  0.55705796  0.68065504  0.24987251    -0.54400
C876        C  0.53784654  0.66883995  0.28558258     0.09700
H877        H  0.62989227  0.70852797  0.30308019     0.14200
H878        H  0.55020185  0.64640318  0.35149488    -0.00100
H879        H  0.63179256  0.63937609  0.24147423     0.14500
H880        H  0.54421163  0.69057872  0.22047134     0.14300
N881        N  0.64157916  0.79442446  0.53660551    -0.27700
N882        N  0.60985651  0.78053232  0.53219208    -0.35600
C883        C  0.58543566  0.78934807  0.56435579     0.00600
C884        C  0.60234751  0.80990248  0.59004172     0.06700
C885        C  0.63787814  0.81241122  0.57127179    -0.06400
H886        H  0.55929126  0.77909647  0.57242151     0.07300
H887        H  0.66115612  0.82353472  0.58627491     0.08500
Cu888      Cu  0.60406699  0.74629248  0.48966611     0.44200
Cu889      Cu  0.69287285  0.78318409  0.50752310     0.42000
Cu890      Cu  0.69462542  0.71576070  0.46224443     0.43900
N891        N  0.61054294  0.71389217  0.44348383    -0.35100
N892        N  0.64361633  0.70265809  0.43461928    -0.29300
C893        C  0.64011677  0.68599414  0.39813015    -0.05400
C894        C  0.60318737  0.68648225  0.38308114     0.06800
C895        C  0.58521891  0.70452402  0.41261804     0.00600
H896        H  0.66363937  0.67682763  0.38028757     0.08200
H897        H  0.55711216  0.71273432  0.40851603     0.07300
N898        N  0.74363259  0.73720712  0.47798145    -0.36500
N899        N  0.74303410  0.76314581  0.49138505    -0.28700
C900        C  0.77867733  0.77226352  0.49524666    -0.04000
C901        C  0.80287206  0.75085937  0.48441776     0.04700
C902        C  0.77963118  0.72892823  0.47382550     0.02700
H903        H  0.78643053  0.79271033  0.50628425     0.07900
H904        H  0.78826243  0.70864922  0.46280529     0.06700
O905        O  0.11302544  0.74219693  0.56070183    -0.73400
O906        O  0.11360457  0.71600156  0.42917408    -0.74300
O907        O  0.16938003  0.72827171  0.49491276    -0.63000
O908        O  0.05500577  0.72943589  0.49445540    -0.71400
O909        O  0.05515254  0.77236777  0.46855999    -0.70900
O910        O  0.16976363  0.77182984  0.47178441    -0.62200
O911        O  0.11409384  0.75920301  0.40423131    -0.74700
O912        O  0.11234847  0.78510625  0.53478932    -0.73500
Cu913      Cu  0.11249364  0.72746589  0.49564455     1.04600
Cu914      Cu  0.11268749  0.77358610  0.46895039     1.04300
C915        C  0.11362587  0.76807488  0.56841329     0.92800
C916        C  0.11549350  0.73343033  0.39611480     0.92000
C917        C  0.18748635  0.74995633  0.48367577     0.84100
C918        C  0.03693422  0.75100814  0.48162761     0.90400
O919        O  0.86256164  0.72939815  0.49567712    -0.73400
O920        O  0.97683027  0.72982563  0.49552294    -0.74300
O921        O  0.91887822  0.74253673  0.56205486    -0.63000
O922        O  0.91821082  0.71704718  0.43045655    -0.71400
O923        O  0.91743667  0.76018644  0.40520922    -0.70900
O924        O  0.91945990  0.78551041  0.53653641    -0.62200
O925        O  0.97659620  0.77277354  0.46970023    -0.74700
O926        O  0.86206197  0.77300061  0.47274168    -0.73500
Cu927      Cu  0.91938236  0.72821570  0.49677465     1.04600
Cu928      Cu  0.91907853  0.77436635  0.47023666     1.04300
C929        C  0.84442161  0.75114127  0.48432415     0.92800
C930        C  0.99485293  0.75122295  0.48223252     0.92000
C931        C  0.91784399  0.76837855  0.57000704     0.84100
C932        C  0.91611450  0.73437973  0.39729395     0.90400
C933        C  0.93158756  0.81311391  0.75319605     0.86100
C934        C  0.92228797  0.80034286  0.79976767    -0.54200
C935        C  0.94066363  0.81240002  0.83604280     0.09000
C936        C  0.96794041  0.83610960  0.82180030     0.20000
C937        C  0.92255281  0.84356299  0.76042722    -0.54900
C938        C  0.94287563  0.85650755  0.79419423     0.09100
C939        C  0.97404514  0.81152962  0.74995757    -0.54400
C940        C  0.99397718  0.82341031  0.78491401     0.09700
H941        H  0.90136474  0.78433047  0.80419789     0.14200
H942        H  0.98296966  0.84552789  0.85117619    -0.00100
H943        H  0.90019980  0.85340769  0.74141466     0.14500
H944        H  0.98627556  0.80114925  0.72086397     0.14300
C945        C  0.93367140  0.68157993  0.22340083     0.86100
C946        C  0.92259694  0.69049409  0.17502265    -0.54200
C947        C  0.94016209  0.67613406  0.14087416     0.09000
C948        C  0.96813055  0.65372568  0.15846215     0.20000
C949        C  0.92661228  0.65064469  0.22472624    -0.54900
C950        C  0.94414068  0.63542683  0.19127226     0.09100
C951        C  0.97618819  0.68330696  0.22470953    -0.54400
C952        C  0.99530425  0.66947077  0.19102888     0.09700
H953        H  0.90222045  0.70669843  0.16820537     0.14200
H954        H  0.98235719  0.64225549  0.13059238    -0.00100
H955        H  0.91170788  0.64140184  0.25268647     0.14500
H956        H  0.98896925  0.69442609  0.25257747     0.14300
N957        N  0.88939933  0.69856065  0.04128791    -0.27700
N958        N  0.92166923  0.71134539  0.03441369    -0.35600
C959        C  0.94709961  0.70173635  0.06511295     0.00600
C960        C  0.93023693  0.68179838  0.09241406     0.06700
C961        C  0.89366053  0.68053984  0.07612316    -0.06400
H962        H  0.97424986  0.71105799  0.07110475     0.07300
H963        H  0.87048998  0.67017089  0.09280475     0.08500
Cu964      Cu  0.92704758  0.74518005  0.99026755     0.44200
Cu965      Cu  0.83788419  0.71109555  0.01389112     0.42000
Cu966      Cu  0.83680655  0.77763519  0.96275471     0.43900
N967        N  0.92099938  0.77785630  0.94378239    -0.35100
N968        N  0.88831441  0.78986917  0.93506721    -0.29300
C969        C  0.89235420  0.80686362  0.89880950    -0.05400
C970        C  0.92920891  0.80576446  0.88369594     0.06800
C971        C  0.94651617  0.78698844  0.91299070     0.00600
H972        H  0.86912460  0.81672431  0.88108893     0.08200
H973        H  0.97427086  0.77823127  0.90882393     0.07300
N974        N  0.78756759  0.75663619  0.97981669    -0.36500
N975        N  0.78810501  0.73109299  0.99563047    -0.28700
C976        C  0.75250656  0.72195373  0.99944718    -0.04000
C977        C  0.72832873  0.74290249  0.98604506     0.04700
C978        C  0.75153663  0.76464526  0.97404412     0.02700
H979        H  0.74476811  0.70175602  0.01195788     0.07900
H980        H  0.74287721  0.78452525  0.96081208     0.06700
C981        C  0.93405413  0.93432433  0.76677294     0.86100
C982        C  0.97658178  0.93548491  0.76548741    -0.54200
C983        C  0.99556229  0.92072372  0.79841167     0.09000
C984        C  0.96811947  0.90492840  0.83069484     0.20000
C985        C  0.92613144  0.90345613  0.76439326    -0.54900
C986        C  0.94367311  0.88748972  0.79727649     0.09100
C987        C  0.92339510  0.94256098  0.81528497    -0.54400
C988        C  0.94048452  0.92727987  0.84896949     0.09700
H989        H  0.98945720  0.94711768  0.73833074     0.14200
H990        H  0.98220731  0.89287806  0.85825722    -0.00100
H991        H  0.91058159  0.89487722  0.73632348     0.14500
H992        H  0.90315788  0.95873311  0.82251466     0.14300
C993        C  0.93208903  0.56079027  0.23450155     0.86100
C994        C  0.97453608  0.55947064  0.23841812    -0.54200
C995        C  0.99441948  0.57108106  0.20326043     0.09000
C996        C  0.96838897  0.58405698  0.16611882     0.20000
C997        C  0.92268075  0.59112354  0.22663862    -0.54900
C998        C  0.94327583  0.60435206  0.19343477     0.09100
C999        C  0.92302143  0.54799631  0.18810657    -0.54400
C1000       C  0.94112442  0.56034404  0.15185703     0.09700
H1001       H  0.98683007  0.54967254  0.26828459     0.14200
H1002       H  0.98328779  0.59366491  0.13677230    -0.00100
H1003       H  0.89948085  0.60059382  0.24432340     0.14500
H1004       H  0.90212744  0.53196641  0.18371330     0.14300
N1005       N  0.88685012  0.94734349  0.94696273    -0.27700
N1006       N  0.91897998  0.95986602  0.95586941    -0.35600
C1007       C  0.94528389  0.95079047  0.92624388     0.00600
C1008       C  0.92926861  0.93145601  0.89730500     0.06700
C1009       C  0.89214818  0.92996379  0.91168549    -0.06400
H1010       H  0.97252003  0.96028663  0.92191759     0.07300
H1011       H  0.86946192  0.92000373  0.89335408     0.08500
Cu1012     Cu  0.92353965  0.99313188  0.00041943     0.44200
Cu1013     Cu  0.83476590  0.95966442  0.97319839     0.42000
Cu1014     Cu  0.83450775  0.52546548  0.02897634     0.43900
N1015       N  0.91885522  0.52604004  0.04562541    -0.35100
N1016       N  0.88646736  0.53817285  0.05487490    -0.29300
C1017       C  0.89154871  0.55542991  0.09033812    -0.05400
C1018       C  0.92880129  0.55426834  0.10439930     0.06800
C1019       C  0.94520774  0.53526318  0.07524488     0.00600
H1020       H  0.86881172  0.56534687  0.10858997     0.08200
H1021       H  0.97291569  0.52630770  0.07899970     0.07300
N1022       N  0.78529239  0.50467455  0.01118344    -0.36500
N1023       N  0.78541261  0.97960524  0.99355351    -0.28700
C1024       C  0.74961791  0.97089317  0.98922838    -0.04000
C1025       C  0.72584944  0.99160963  0.00417398     0.04700
C1026       C  0.74943419  0.51276928  0.01763473     0.02700
H1027       H  0.74145238  0.95122838  0.97511308     0.07900
H1028       H  0.74115686  0.53235106  0.03203363     0.06700
O1029       O  0.17267116  0.97749036  0.49542231    -0.73400
O1030       O  0.05881452  0.97939967  0.49579841    -0.74300
O1031       O  0.11627919  0.98999068  0.42867211    -0.63000
O1032       O  0.11713407  0.96713130  0.56182590    -0.71400
O1033       O  0.11826066  0.01071503  0.58409576    -0.70900
O1034       O  0.11725856  0.53350521  0.45080699    -0.62200
O1035       O  0.05982635  0.52291953  0.51792344    -0.74700
O1036       O  0.17409642  0.52141591  0.51571900    -0.73500
Cu1037     Cu  0.11596206  0.97700957  0.49473112     1.04600
Cu1038     Cu  0.11721311  0.52366831  0.51787642     1.04300
C1039       C  0.19122428  0.99915744  0.50533673     0.92800
C1040       C  0.04125075  0.00140880  0.50688710     0.92000
C1041       C  0.11798169  0.51556137  0.41877012     0.84100
C1042       C  0.11929276  0.98505374  0.59380650     0.90400
O1043       O  0.86723699  0.52441631  0.51545114    -0.73400
O1044       O  0.98151812  0.52365482  0.51801992    -0.74300
O1045       O  0.92421729  0.53529467  0.45086903    -0.63000
O1046       O  0.92275694  0.01276453  0.58359987    -0.71400
O1047       O  0.92296777  0.96918674  0.56111141    -0.70900
O1048       O  0.92278914  0.99195108  0.42808236    -0.62200
O1049       O  0.98104351  0.98031747  0.49494794    -0.74700
O1050       O  0.86710417  0.98043449  0.49558689    -0.73500
Cu1051     Cu  0.92419626  0.52554063  0.51767168     1.04600
Cu1052     Cu  0.92377248  0.97896015  0.49419772     1.04300
C1053       C  0.84930483  0.00246309  0.50559921     0.92800
C1054       C  0.99933897  0.00185418  0.50667404     0.92000
C1055       C  0.92187666  0.51761498  0.41856686     0.84100
C1056       C  0.92084462  0.98713007  0.59303751     0.90400
C1057       C  0.09803569  0.81306173  0.75136296     0.86100
C1058       C  0.05555509  0.81341029  0.74738953    -0.54200
C1059       C  0.03629402  0.82389290  0.78401361     0.09000
C1060       C  0.06309053  0.83495069  0.82171308     0.20000
C1061       C  0.10940970  0.84250792  0.76164880    -0.54900
C1062       C  0.08944661  0.85531761  0.79575908     0.09100
C1063       C  0.10625913  0.79822776  0.79672934    -0.54400
C1064       C  0.08875610  0.80982878  0.83395990     0.09700
H1065       H  0.04282129  0.80549840  0.71642312     0.14200
H1066       H  0.04871271  0.84398036  0.85186389    -0.00100
H1067       H  0.13219456  0.85179328  0.74277422     0.14500
H1068       H  0.12612282  0.78133832  0.79995991     0.14300
C1069       C  0.09994114  0.68127732  0.22211346     0.86100
C1070       C  0.05747378  0.68457694  0.22215180    -0.54200
C1071       C  0.03777696  0.66975539  0.19014742     0.09000
C1072       C  0.06435426  0.65280875  0.15866160     0.20000
C1073       C  0.10486976  0.65017315  0.22606423    -0.54900
C1074       C  0.08748795  0.63477231  0.19275525     0.09100
C1075       C  0.11168063  0.68856079  0.17325716    -0.54400
C1076       C  0.09330792  0.67396699  0.13987516     0.09700
H1077       H  0.04499123  0.69765925  0.24763090     0.14200
H1078       H  0.04966454  0.64107554  0.13143790    -0.00100
H1079       H  0.11696268  0.64106620  0.25630030     0.14500
H1080       H  0.13283270  0.70397373  0.16558483     0.14300
N1081       N  0.14271779  0.69298812  0.03741587    -0.27700
N1082       N  0.10985947  0.70478324  0.02898029    -0.35600
C1083       C  0.08506128  0.69623498  0.06105877     0.00600
C1084       C  0.10306486  0.67813492  0.09098322     0.06700
C1085       C  0.13952358  0.67672371  0.07469482    -0.06400
H1086       H  0.05758336  0.70532416  0.06596863     0.07300
H1087       H  0.16324951  0.66764648  0.09258598     0.08500
Cu1088     Cu  0.10320527  0.73708026  0.98180246     0.44200
Cu1089     Cu  0.19367067  0.70545741  0.00911182     0.42000
Cu1090     Cu  0.19261061  0.77217873  0.95960163     0.43900
N1091       N  0.10868082  0.77092828  0.93761439    -0.35100
N1092       N  0.14080396  0.78409998  0.93147842    -0.29300
C1093       C  0.13632098  0.80261420  0.89737869    -0.05400
C1094       C  0.09979031  0.80131132  0.88099435     0.06800
C1095       C  0.08316591  0.78074636  0.90712960     0.00600
H1096       H  0.15919870  0.81389615  0.88179642     0.08200
H1097       H  0.05587515  0.77164115  0.90115130     0.07300
N1098       N  0.24268596  0.75192258  0.97711773    -0.36500
N1099       N  0.24293772  0.72624971  0.99231019    -0.28700
C1100       C  0.27882065  0.71767873  0.99698760    -0.04000
C1101       C  0.30242078  0.73912126  0.98479621     0.04700
C1102       C  0.27850153  0.76057240  0.97258761     0.02700
H1103       H  0.28713332  0.69752219  0.00931818     0.07900
H1104       H  0.28657046  0.78071122  0.96011786     0.06700
C1105       C  0.10039376  0.93305285  0.76866477     0.86100
C1106       C  0.11033633  0.94115177  0.81767856    -0.54200
C1107       C  0.09215132  0.92609475  0.85070091     0.09000
C1108       C  0.06462269  0.90409425  0.83154532     0.20000
C1109       C  0.10771690  0.90208426  0.76680033    -0.54900
C1110       C  0.08930531  0.88633285  0.79906096     0.09100
C1111       C  0.05785987  0.93482122  0.76616096    -0.54400
C1112       C  0.03808189  0.92031618  0.79863045     0.09700
H1113       H  0.13053484  0.95715630  0.82574386     0.14200
H1114       H  0.04984461  0.89219773  0.85858624    -0.00100
H1115       H  0.12366238  0.89332424  0.73937978     0.14500
H1116       H  0.04563335  0.94677764  0.73878448     0.14300
C1117       C  0.09902408  0.56010955  0.23620780     0.86100
C1118       C  0.10805782  0.54757626  0.18964161    -0.54200
C1119       C  0.08989089  0.56010092  0.15348920     0.09000
C1120       C  0.06286824  0.58385016  0.16760117     0.20000
C1121       C  0.10817738  0.59053758  0.22918808    -0.54900
C1122       C  0.08782335  0.60383036  0.19560466     0.09100
C1123       C  0.05638463  0.55913652  0.23958279    -0.54400
C1124       C  0.03668259  0.57092948  0.20397374     0.09700
H1125       H  0.12849118  0.53116678  0.18524512     0.14200
H1126       H  0.04812125  0.59359324  0.13811811    -0.00100
H1127       H  0.13073658  0.60036106  0.24731591     0.14500
H1128       H  0.04389748  0.54948767  0.26931050     0.14300
N1129       N  0.14085997  0.94465238  0.95366262    -0.27700
N1130       N  0.10886740  0.95806161  0.95961090    -0.35600
C1131       C  0.08412482  0.94995276  0.92722025     0.00600
C1132       C  0.10111416  0.93039581  0.89964448     0.06700
C1133       C  0.13706773  0.92771689  0.91753280    -0.06400
H1134       H  0.05765046  0.96020398  0.92036387     0.07300
H1135       H  0.16035416  0.91725736  0.90127621     0.08500
Cu1136     Cu  0.10305180  0.99146858  0.00351046     0.44200
Cu1137     Cu  0.19207036  0.95560860  0.98343352     0.42000
Cu1138     Cu  0.19246718  0.52350141  0.02865404     0.43900
N1139       N  0.10875061  0.52477982  0.04755720    -0.35100
N1140       N  0.14142643  0.53678177  0.05540776    -0.29300
C1141       C  0.13756292  0.55429672  0.09066090    -0.05400
C1142       C  0.10079106  0.55348292  0.10596509     0.06800
C1143       C  0.08333616  0.53440804  0.07786903     0.00600
H1144       H  0.16089701  0.56412980  0.10793245     0.08200
H1145       H  0.05569956  0.52567882  0.08285604     0.07300
N1146       N  0.24156902  0.50222413  0.01316739    -0.36500
N1147       N  0.24158335  0.97624381  0.99995650    -0.28700
C1148       C  0.27743124  0.96752206  0.99608136    -0.04000
C1149       C  0.30101992  0.48924543  0.00668980     0.04700
C1150       C  0.27731667  0.51092926  0.01715607     0.02700
H1151       H  0.28570095  0.94715963  0.98507726     0.07900
H1152       H  0.28546010  0.53135171  0.02790123     0.06700
C1153       C  0.13202299  0.56160943  0.31511901    -0.21700
C1154       C  0.11583750  0.54607523  0.27917399    -0.09800
C1155       C  0.10671519  0.51832324  0.28876474     0.29100
C1156       C  0.10904908  0.50792061  0.33384039    -0.21700
C1157       C  0.12086103  0.52480781  0.37018846    -0.09800
C1158       C  0.13434319  0.55122362  0.35981705     0.29100
F1159       F  0.14840263  0.56770601  0.39330982    -0.20300
H1160       H  0.14050998  0.58266910  0.31091604     0.17500
H1161       H  0.09938395  0.48719821  0.34068929     0.17500
F1162       F  0.09148916  0.50219687  0.25558891    -0.20300
C1163       C  0.10651484  0.98992608  0.67844005    -0.21700
C1164       C  0.12327375  0.97557627  0.64206427    -0.09800
C1165       C  0.14279078  0.95111372  0.65193159     0.29100
C1166       C  0.14086973  0.93924493  0.69569944    -0.21700
C1167       C  0.11776524  0.95076782  0.73000054    -0.09800
C1168       C  0.10431266  0.97787771  0.72236476     0.29100
F1169       F  0.08481869  0.99121691  0.75563752    -0.20300
H1170       H  0.09277217  0.00949980  0.67215981     0.17500
H1171       H  0.15622209  0.92036774  0.70106519     0.17500
F1172       F  0.16277763  0.93810677  0.61872020    -0.20300
C1173       C  0.90929568  0.56532503  0.31663468    -0.21700
C1174       C  0.91583764  0.54804720  0.27850032    -0.09800
C1175       C  0.92028467  0.51956830  0.28734610     0.29100
C1176       C  0.92083895  0.50941880  0.33276255    -0.21700
C1177       C  0.91734593  0.52738858  0.37033586    -0.09800
C1178       C  0.90988643  0.55529004  0.36145842     0.29100
F1179       F  0.90517363  0.57356480  0.39620236    -0.20300
H1180       H  0.90729733  0.58736956  0.31328282     0.17500
H1181       H  0.92617545  0.98774297  0.33859201     0.17500
F1182       F  0.92811618  0.50195359  0.25254639    -0.20300
C1183       C  0.89506051  0.94164103  0.69301811    -0.21700
C1184       C  0.91779137  0.95254341  0.72822134    -0.09800
C1185       C  0.93219125  0.97943351  0.72178146     0.29100
C1186       C  0.93162341  0.99163874  0.67799711    -0.21700
C1187       C  0.91535417  0.97770996  0.64083258    -0.09800
C1188       C  0.89452387  0.95377076  0.64947802     0.29100
F1189       F  0.87470390  0.94148317  0.61528808    -0.20300
H1190       H  0.87915128  0.92299727  0.69754289     0.17500
H1191       H  0.94624741  0.01089086  0.67252990     0.17500
F1192       F  0.95142799  0.99212217  0.75607806    -0.20300
C1193       C  0.89539402  0.68690202  0.29818854    -0.21700
C1194       C  0.91698552  0.69880528  0.26269027    -0.09800
C1195       C  0.92938246  0.72618724  0.26891642     0.29100
C1196       C  0.92732424  0.73855628  0.31233118    -0.21700
C1197       C  0.91200091  0.72413931  0.34973007    -0.09800
C1198       C  0.89373728  0.69906964  0.34150869     0.29100
F1199       F  0.87521890  0.68579999  0.37582529    -0.20300
H1200       H  0.88101495  0.66759377  0.29416073     0.17500
H1201       H  0.94008698  0.75852482  0.31737879     0.17500
F1202       F  0.94758206  0.73965804  0.23456726    -0.20300
C1203       C  0.91778683  0.76120742  0.65626207    -0.21700
C1204       C  0.91440531  0.77885435  0.61792188    -0.09800
C1205       C  0.90845012  0.80701647  0.62579984     0.29100
C1206       C  0.90921561  0.81748955  0.67029770    -0.21700
C1207       C  0.91521993  0.80038352  0.70914279    -0.09800
C1208       C  0.91839283  0.77176079  0.70128301     0.29100
F1209       F  0.92574204  0.75421252  0.73665526    -0.20300
H1210       H  0.92194125  0.73933873  0.65138238     0.17500
H1211       H  0.90840027  0.83959764  0.67287870     0.17500
F1212       F  0.90386430  0.82503642  0.59034348    -0.20300
C1213       C  0.13969453  0.69904255  0.34023207    -0.21700
C1214       C  0.11987602  0.72348463  0.34839589    -0.09800
C1215       C  0.10467402  0.73791114  0.31064242     0.29100
C1216       C  0.10423629  0.72577961  0.26701074    -0.21700
C1217       C  0.11757672  0.69867541  0.26077565    -0.09800
C1218       C  0.13997024  0.68725850  0.29644603     0.29100
F1219       F  0.16246546  0.66510269  0.28961217    -0.20300
H1220       H  0.15471249  0.68885578  0.36801367     0.17500
H1221       H  0.08916902  0.73614145  0.23946234     0.17500
F1222       F  0.08726737  0.76250511  0.31654054    -0.20300
C1223       C  0.11466980  0.80746588  0.62250978    -0.21700
C1224       C  0.11581406  0.77894839  0.61610678    -0.09800
C1225       C  0.11787804  0.76177968  0.65526997     0.29100
C1226       C  0.11674741  0.77310650  0.69968911    -0.21700
C1227       C  0.11370016  0.80176035  0.70620295    -0.09800
C1228       C  0.11279897  0.81873713  0.66632363     0.29100
F1229       F  0.10604794  0.84618674  0.66875344    -0.20300
H1230       H  0.11294128  0.82134400  0.59328222     0.17500
H1231       H  0.11547675  0.75920961  0.72882722     0.17500
F1232       F  0.11909885  0.73401844  0.65087482    -0.20300
C1233       C  0.63874078  0.53975781  0.14924965    -0.21700
C1234       C  0.61775481  0.51594940  0.14070291    -0.09800
C1235       C  0.60203154  0.50175631  0.17818807     0.29100
C1236       C  0.60238991  0.51369936  0.22199922    -0.21700
C1237       C  0.61686572  0.54046118  0.22850852    -0.09800
C1238       C  0.63960439  0.55138821  0.19309586     0.29100
F1239       F  0.66286518  0.57300762  0.20024222    -0.20300
H1240       H  0.65410293  0.54965482  0.12163947     0.17500
H1241       H  0.58707397  0.50360465  0.24944762     0.17500
F1242       F  0.58338618  0.47773921  0.17186028    -0.20300
C1243       C  0.62411727  0.93750669  0.86395844    -0.21700
C1244       C  0.61614822  0.96542828  0.87054999    -0.09800
C1245       C  0.61228177  0.98244560  0.83146651     0.29100
C1246       C  0.61366414  0.97105909  0.78704840    -0.21700
C1247       C  0.61865705  0.94246919  0.78033761    -0.09800
C1248       C  0.62471742  0.92601572  0.82018957     0.29100
F1249       F  0.62735894  0.89824058  0.81849468    -0.20300
H1250       H  0.62792500  0.92385612  0.89319937     0.17500
H1251       H  0.60728695  0.98430437  0.75797479     0.17500
F1252       F  0.60469958  0.50969246  0.83598343    -0.20300
C1253       C  0.42881090  0.50361770  0.17706719    -0.21700
C1254       C  0.41194379  0.51797513  0.14043822    -0.09800
C1255       C  0.39313255  0.54273814  0.14958365     0.29100
C1256       C  0.39518737  0.55455901  0.19318881    -0.21700
C1257       C  0.41766330  0.54260929  0.22811855    -0.09800
C1258       C  0.43134070  0.51562593  0.22069417     0.29100
F1259       F  0.45123304  0.50230211  0.25400308    -0.20300
H1260       H  0.44231526  0.98394264  0.17122243     0.17500
H1261       H  0.38036047  0.57367649  0.19774899     0.17500
F1262       F  0.37353002  0.55599479  0.11594749    -0.20300
C1263       C  0.42538664  0.93345803  0.86837515    -0.21700
C1264       C  0.41539036  0.96106298  0.87385915    -0.09800
C1265       C  0.40631690  0.97678307  0.83437460     0.29100
C1266       C  0.40922802  0.96513876  0.79018858    -0.21700
C1267       C  0.42120237  0.93769010  0.78477798    -0.09800
C1268       C  0.42893826  0.92205456  0.82504416     0.29100
F1269       F  0.44382122  0.89633345  0.82288655    -0.20300
H1270       H  0.43283090  0.92078303  0.89781667     0.17500
H1271       H  0.40441991  0.97814127  0.76043313     0.17500
F1272       F  0.39576637  0.00351077  0.83825993    -0.20300
C1273       C  0.42109285  0.73147234  0.15751678    -0.21700
C1274       C  0.41447089  0.71378894  0.12021154    -0.09800
C1275       C  0.40566714  0.68616053  0.12963061     0.29100
C1276       C  0.40677509  0.67601062  0.17452495    -0.21700
C1277       C  0.41630231  0.69296911  0.21214724    -0.09800
C1278       C  0.42220384  0.72125314  0.20288909     0.29100
F1279       F  0.43302068  0.73849004  0.23704323    -0.20300
H1280       H  0.42757908  0.75293462  0.15142596     0.17500
H1281       H  0.40336361  0.65408650  0.17816029     0.17500
F1282       F  0.39777694  0.66826142  0.09518780    -0.20300
C1283       C  0.43677938  0.76147197  0.76935437    -0.21700
C1284       C  0.42087212  0.78762666  0.76036765    -0.09800
C1285       C  0.39465272  0.79779031  0.79259125     0.29100
C1286       C  0.39243905  0.78605948  0.83648815    -0.21700
C1287       C  0.41408956  0.76290588  0.84799434    -0.09800
C1288       C  0.43412434  0.74944737  0.81312182     0.29100
F1289       F  0.45397907  0.72618247  0.82240174    -0.20300
H1290       H  0.45471035  0.75176076  0.74409031     0.17500
H1291       H  0.37433439  0.79544897  0.86192034     0.17500
F1292       F  0.37107712  0.81889609  0.78215942    -0.20300
C1293       C  0.62615349  0.67650342  0.17110637    -0.21700
C1294       C  0.61538394  0.69298941  0.20881385    -0.09800
C1295       C  0.60845393  0.72121099  0.20011358     0.29100
C1296       C  0.60917601  0.73171840  0.15501191    -0.21700
C1297       C  0.61671358  0.71440907  0.11753161    -0.09800
C1298       C  0.62689375  0.68695953  0.12644386     0.29100
F1299       F  0.63593193  0.66954610  0.09173212    -0.20300
H1300       H  0.63099947  0.65471199  0.17424551     0.17500
H1301       H  0.60177123  0.75308321  0.14925000     0.17500
F1302       F  0.59696459  0.73800779  0.23452315    -0.20300
C1303       C  0.60764007  0.75274831  0.81057491    -0.21700
C1304       C  0.62214790  0.76723362  0.84825810    -0.09800
C1305       C  0.64192953  0.79172168  0.84005370     0.29100
C1306       C  0.64208191  0.80357593  0.79621402    -0.21700
C1307       C  0.62089954  0.79189030  0.76016641    -0.09800
C1308       C  0.60755458  0.76473253  0.76660219     0.29100
F1309       F  0.58947544  0.75150950  0.73195547    -0.20300
H1310       H  0.59387497  0.73313103  0.81568343     0.17500
H1311       H  0.65705716  0.82264860  0.79231606     0.17500
F1312       F  0.66010572  0.80476675  0.87482039    -0.20300
loop_ 
_geom_bond_atom_site_label_1 
_geom_bond_atom_site_label_2 
_geom_bond_distance 
_geom_bond_site_symmetry_2 
_ccdc_geom_bond_type 
O1           Cu9   2.021       .  S
O1           C11   1.278       .  A
O2           Cu9   2.044       .  S
O2           C12   1.282       .  A
O3           Cu9   2.019   1_554  S
O3           C13   1.278       .  A
O4           Cu9   2.007       .  S
O4           C14   1.279       .  A
O5          Cu10   2.014       .  S
O5           C14   1.277       .  A
O6          Cu10   1.997   1_554  S
O6           C13   1.278       .  A
O7          Cu10   2.049       .  S
O7           C12   1.282       .  A
O8          Cu10   2.031       .  S
O8           C11   1.280       .  A
Cu9         Cu10   2.370       .  S
C11         C321   1.478       .  S
C12          C28   1.497       .  S
C13         C641   1.484       .  S
C14         C648   1.478       .  S
O15         Cu23   2.030   1_554  S
O15          C25   1.280       .  A
O16         Cu23   2.011       .  S
O16          C26   1.279       .  A
O17         Cu23   2.024       .  S
O17          C27   1.278       .  A
O18         Cu23   2.045       .  S
O18          C28   1.282       .  A
O19         Cu24   2.048       .  S
O19          C28   1.282       .  A
O20         Cu24   2.036       .  S
O20          C27   1.281       .  A
O21         Cu24   2.009       .  S
O21          C26   1.277       .  A
O22         Cu24   2.000   1_554  S
O22          C25   1.278       .  A
Cu23        Cu24   2.369       .  S
C25         C618   1.489       .  S
C26         C631   1.475       .  S
C27         C445   1.481       .  S
C29          C30   1.521       .  S
C29          C35   1.516       .  S
C29          C33   1.530       .  S
C29         C628   1.541       .  S
C30          H37   1.075       .  S
C30          C31   1.372       .  D
C31          C32   1.554       .  S
C31         C208   1.513       .  S
C32          C36   1.560       .  S
C32          C34   1.547       .  S
C32          H38   1.107       .  S
C33          H39   1.073       .  S
C33          C34   1.375       .  D
C34          C82   1.503       .  S
C35          H40   1.087       .  S
C35          C36   1.367       .  D
C36          C56   1.477       .  S
C41          C42   1.515       .  S
C41          C47   1.522       .  S
C41          C45   1.528       .  S
C41         C621   1.537       .  S
C42          H49   1.079       .  S
C42          C43   1.366       .  D
C43          C44   1.551       .  S
C43         C220   1.505       .  S
C44          C48   1.563       .  S
C44          C46   1.554       .  S
C44          H50   1.108       .  S
C45          H51   1.076       .  S
C45          C46   1.376       .  D
C46          C94   1.516       .  S
C47          H52   1.086       .  S
C47          C48   1.372       .  D
C48          C66   1.476       .  S
N53          N54   1.322       .  A
N53          C57   1.344       .  A
N53         Cu61   2.092       .  S
N54          C55   1.349       .  A
N54         Cu60   2.081       .  S
C55          C56   1.386       .  A
C55          H58   1.082       .  S
C56          C57   1.388       .  A
C57          H59   1.082       .  S
Cu60         N63   2.082       .  S
Cu61         N71   2.091       .  S
Cu62         N64   2.096       .  S
Cu62         N70   2.096       .  S
N63          N64   1.323       .  A
N63          C67   1.349       .  A
N64          C65   1.344       .  A
C65          C66   1.387       .  A
C65          H68   1.082       .  S
C66          C67   1.386       .  A
C67          H69   1.082       .  S
N70          N71   1.323       .  A
N70          C74   1.351       .  A
N71          C72   1.349       .  A
C72          C73   1.386       .  A
C72          H75   1.082       .  S
C73         C261   1.481       .  S
C73          C74   1.388       .  A
C74          H76   1.082       .  S
C77          C78   1.526       .  S
C77          C83   1.516       .  S
C77          C81   1.521       .  S
C77         C611   1.528       .  S
C78          H85   1.085       .  S
C78          C79   1.375       .  D
C79          C80   1.560       .  S
C79         C114   1.474       .  S
C80          C84   1.547       .  S
C80          C82   1.553       .  S
C80          H86   1.107       .  S
C81          H87   1.081       .  S
C81          C82   1.368       .  D
C83          H88   1.078       .  S
C83          C84   1.366       .  D
C84         C155   1.506       .  S
C89          C90   1.520       .  S
C89          C95   1.516       .  S
C89          C93   1.523       .  S
C89         C601   1.539       .  S
C90          H97   1.086       .  S
C90          C91   1.368       .  D
C91          C92   1.559       .  S
C91         C104   1.476       .  S
C92          C96   1.554       .  S
C92          C94   1.564       .  S
C92          H98   1.108       .  S
C93          H99   1.068       .  S
C93          C94   1.375       .  D
C95         H100   1.079       .  S
C95          C96   1.370       .  D
C96         C167   1.511       .  S
N101        N102   1.322       .  A
N101        C105   1.343       .  A
N101       Cu109   2.087       .  S
N102        C103   1.350       .  A
N102       Cu764   2.089   1_545  S
C103        C104   1.389       .  A
C103        H106   1.082       .  S
C104        C105   1.385       .  A
C105        H107   1.082       .  S
Cu108       N111   2.088       .  S
Cu108       N758   2.089       .  S
Cu109       N775   2.087       .  S
Cu110       N112   2.082       .  S
Cu110       N118   2.082       .  S
N111        N112   1.324       .  A
N111        C115   1.350       .  A
N112        C113   1.343       .  A
C113        C114   1.383       .  A
C113        H116   1.082       .  S
C114        C115   1.385       .  A
C115        H117   1.082       .  S
N118        N119   1.322       .  A
N118        C122   1.348       .  A
N119        C776   1.349       .  A
N119       Cu765   2.087       .  S
C120        N775   1.349       .  A
C120        C777   1.386   1_545  A
C120        H123   1.082       .  S
C121        C383   1.476       .  S
C121        C122   1.385       .  A
C121        C776   1.386       .  A
C122        H124   1.082       .  S
O125       Cu133   1.998   1_556  S
O125        C135   1.279       .  A
O126       Cu133   2.012       .  S
O126        C792   1.277       .  A
O127       Cu133   2.039       .  S
O127        C793   1.281       .  A
O128       Cu133   2.027       .  S
O128        C794   1.279       .  A
O129       Cu134   2.021       .  S
O129        C138   1.278   1_546  A
O130       Cu134   2.044       .  S
O130        C137   1.281   1_546  A
O131       Cu134   2.010   1_554  S
O131        C136   1.279       .  A
O132       Cu134   2.027       .  S
O132        C791   1.279   1_545  A
Cu133      Cu790   2.370   1_554  S
Cu134      Cu789   2.370   1_546  S
C135        O788   1.279       .  A
C135        C588   1.489       .  S
C136        O782   1.277   1_545  A
C136        C578   1.477       .  S
C137        O783   1.281       .  A
C137        C150   1.492       .  S
C138        O784   1.279       .  A
C138       C1025   1.477       .  S
O139       Cu147   2.025       .  S
O139        C805   1.279       .  A
O140       Cu147   2.037       .  S
O140        C806   1.281       .  A
O141       Cu147   2.007       .  S
O141        C807   1.277       .  A
O142       Cu147   1.989   1_556  S
O142        C152   1.278       .  A
O143       Cu148   2.023   1_565  S
O143        C808   1.278       .  A
O144       Cu148   2.009   1_554  S
O144        C151   1.279       .  A
O145       Cu148   2.044       .  S
O145        C150   1.282   1_546  A
O146       Cu148   2.018       .  S
O146        C149   1.278   1_546  A
Cu147      Cu804   2.371   1_554  S
Cu148      Cu803   2.371   1_546  S
C149        O795   1.279       .  A
C149        C493   1.475       .  S
C150        O796   1.281       .  A
C151        O797   1.277   1_545  A
C151        C598   1.477       .  S
C152        O799   1.278       .  A
C152        C608   1.483       .  S
C153        C154   1.515       .  S
C153        C159   1.523       .  S
C153        C157   1.527       .  S
C153        C591   1.537       .  S
C154        H161   1.078       .  S
C154        C155   1.367       .  D
C155        C156   1.549       .  S
C156        C160   1.563       .  S
C156        C158   1.552       .  S
C156        H162   1.108       .  S
C157        H163   1.076       .  S
C157        C158   1.376       .  D
C158        C206   1.513       .  S
C159        H164   1.086       .  S
C159        C160   1.372       .  D
C160        C190   1.476       .  S
C165        C166   1.519       .  S
C165        C171   1.518       .  S
C165        C169   1.530       .  S
C165        C581   1.541       .  S
C166        H173   1.077       .  S
C166        C167   1.370       .  D
C167        C168   1.554       .  S
C168        C172   1.557       .  S
C168        C170   1.549       .  S
C168        H174   1.108       .  S
C169        H175   1.072       .  S
C169        C170   1.375       .  D
C170        C218   1.504       .  S
C171        H176   1.086       .  S
C171        C172   1.368       .  D
C172        C180   1.473       .  S
N177        N178   1.322       .  A
N177        C181   1.344       .  A
N177       Cu185   2.088       .  S
N178        C179   1.348       .  A
N178       Cu840   2.081   1_545  S
C179        C180   1.386       .  A
C179        H182   1.082       .  S
C180        C181   1.386       .  A
C181        H183   1.082       .  S
Cu184       N187   2.080       .  S
Cu184       N834   2.081       .  S
Cu185       N195   2.087       .  S
Cu186       N188   2.091       .  S
Cu186       N194   2.090       .  S
N187        N188   1.323       .  A
N187        C191   1.350       .  A
N188        C189   1.344       .  A
C189        C190   1.387       .  A
C189        H192   1.082       .  S
C190        C191   1.385       .  A
C191        H193   1.082       .  S
N194        N851   1.323       .  A
N194        C198   1.348       .  A
N195        N850   1.323   1_545  A
N195        C196   1.349       .  A
C196        C853   1.385       .  A
C196        H199   1.082       .  S
C197        C397   1.477       .  S
C197        C198   1.386       .  A
C197        C852   1.385       .  A
C198        H200   1.082       .  S
C201        C202   1.522       .  S
C201        C207   1.517       .  S
C201        C205   1.524       .  S
C201        C651   1.538       .  S
C202        H209   1.086       .  S
C202        C203   1.369       .  D
C203        C204   1.554       .  S
C203        C228   1.473       .  S
C204        C208   1.554       .  S
C204        C206   1.565       .  S
C204        H210   1.108       .  S
C205        H211   1.068       .  S
C205        C206   1.374       .  D
C207        H212   1.077       .  S
C207        C208   1.368       .  D
C213        C214   1.524       .  S
C213        C219   1.519       .  S
C213        C217   1.528       .  S
C213        C638   1.536       .  S
C214        H221   1.086       .  S
C214        C215   1.372       .  D
C215        C216   1.560       .  S
C215        C238   1.476       .  S
C216        C220   1.544       .  S
C216        C218   1.551       .  S
C216        H222   1.107       .  S
C217        H223   1.076       .  S
C217        C218   1.370       .  D
C219        H224   1.079       .  S
C219        C220   1.369       .  D
N225        N226   1.323       .  A
N225        C229   1.343       .  A
N225       Cu233   2.087       .  S
N226        C227   1.349       .  A
N226       Cu232   2.088       .  S
C227        C228   1.387       .  A
C227        H230   1.082       .  S
C228        C229   1.384       .  A
C229        H231   1.082       .  S
Cu232       N235   2.086       .  S
Cu233       N243   2.087       .  S
Cu234       N236   2.085       .  S
Cu234       N242   2.085       .  S
N235        N236   1.323       .  A
N235        C239   1.351       .  A
N236        C237   1.343       .  A
C237        C238   1.384       .  A
C237        H240   1.082       .  S
C238        C239   1.386       .  A
C239        H241   1.082       .  S
N242        N243   1.321       .  A
N242        C246   1.348       .  A
N243        C244   1.349       .  A
C244        C245   1.387       .  A
C244        H247   1.082       .  S
C245        C273   1.479       .  S
C245        C246   1.386       .  A
C246        H248   1.082       .  S
O249       Cu257   2.024       .  S
O249        C259   1.279       .  A
O250       Cu257   2.012       .  S
O250        C260   1.280       .  A
O251       Cu257   2.025       .  S
O251        C261   1.278       .  A
O252       Cu257   2.048       .  S
O252        C262   1.282       .  A
O253       Cu258   2.049       .  S
O253        C262   1.282       .  A
O254       Cu258   2.034       .  S
O254        C261   1.280       .  A
O255       Cu258   2.009       .  S
O255        C260   1.277       .  A
O256       Cu258   1.995       .  S
O256        C259   1.278       .  A
Cu257      Cu258   2.369       .  S
C259        C568   1.487       .  S
C260        C558   1.479       .  S
C262        C274   1.498   1_455  S
O263       Cu271   2.023       .  S
O263        C273   1.279       .  A
O264       Cu271   2.047       .  S
O264        C274   1.282       .  A
O265       Cu271   2.023       .  S
O265        C275   1.279       .  A
O266       Cu271   2.004       .  S
O266        C276   1.279       .  A
O267       Cu272   2.014       .  S
O267        C276   1.277       .  A
O268       Cu272   2.003       .  S
O268        C275   1.279       .  A
O269       Cu272   2.049       .  S
O269        C274   1.282       .  A
O270       Cu272   2.032       .  S
O270        C273   1.280       .  A
Cu271      Cu272   2.369       .  S
C275        C548   1.489       .  S
C276        C541   1.478       .  S
C277        C278   1.523       .  S
C277        C283   1.516       .  S
C277        C281   1.529       .  S
C277        C551   1.537       .  S
C278        H285   1.086       .  S
C278        C279   1.373       .  D
C279        C280   1.564       .  S
C279        C314   1.479       .  S
C280        C284   1.548       .  S
C280        C282   1.551       .  S
C280        H286   1.107       .  S
C281        H287   1.077       .  S
C281        C282   1.373       .  D
C282        C330   1.509       .  S
C283        H288   1.079       .  S
C283        C284   1.368       .  D
C284        C403   1.507   1_655  S
C289        C290   1.519       .  S
C289        C295   1.516       .  S
C289        C293   1.525       .  S
C289        C538   1.538       .  S
C290        H297   1.086       .  S
C290        C291   1.368       .  D
C291        C292   1.557       .  S
C291        C304   1.475       .  S
C292        C296   1.556       .  S
C292        C294   1.559       .  S
C292        H298   1.108       .  S
C293        H299   1.069       .  S
C293        C294   1.374       .  D
C294        C342   1.512       .  S
C295        H300   1.076       .  S
C295        C296   1.371       .  D
C296        C415   1.512   1_655  S
N301        N302   1.323       .  A
N301        C305   1.343       .  A
N301       Cu309   2.085       .  S
N302        C303   1.350       .  A
N302       Cu308   2.090   1_554  S
C303        C304   1.388       .  A
C303        H306   1.082       .  S
C304        C305   1.385       .  A
C305        H307   1.082       .  S
Cu308       N311   2.090       .  S
Cu309       N319   2.085   1_554  S
Cu310       N312   2.091       .  S
Cu310       N318   2.090       .  S
N311        N312   1.324       .  A
N311        C315   1.351       .  A
N312        C313   1.344       .  A
C313        C314   1.386       .  A
C313        H316   1.082       .  S
C314        C315   1.387       .  A
C315        H317   1.082       .  S
N318        N319   1.322       .  A
N318        C322   1.349       .  A
N319        C320   1.348       .  A
C320        C321   1.385       .  A
C320        H323   1.082   1_556  S
C321        C322   1.387       .  A
C322        H324   1.082       .  S
C325        C326   1.515       .  S
C325        C331   1.516       .  S
C325        C329   1.529       .  S
C325        C528   1.535       .  S
C326        H333   1.073       .  S
C326        C327   1.368       .  D
C327        C328   1.557       .  S
C327        C456   1.513   1_655  S
C328        C332   1.560       .  S
C328        C330   1.557       .  S
C328        H334   1.108       .  S
C329        H335   1.071       .  S
C329        C330   1.375       .  D
C331        H336   1.087       .  S
C331        C332   1.366       .  D
C332        C352   1.476       .  S
C337        C338   1.516       .  S
C337        C343   1.521       .  S
C337        C341   1.527       .  S
C337        C518   1.533       .  S
C338        H345   1.079       .  S
C338        C339   1.365       .  D
C339        C340   1.551       .  S
C339        C468   1.504   1_655  S
C340        C344   1.565       .  S
C340        C342   1.552       .  S
C340        H346   1.107       .  S
C341        H347   1.077       .  S
C341        C342   1.372       .  D
C343        H348   1.086       .  S
C343        C344   1.373       .  D
C344        C362   1.477       .  S
N349        N350   1.322       .  A
N349        C353   1.345       .  A
N349       Cu357   2.094       .  S
N350        C351   1.348       .  A
N350       Cu356   2.082   1_556  S
C351        C352   1.386       .  A
C351        H354   1.082       .  S
C352        C353   1.389       .  A
C353        H355   1.082       .  S
Cu356      N1015   2.082       .  S
Cu357       N367   2.092       .  S
Cu358       N360   2.090       .  S
Cu358       N366   2.089       .  S
N359        N360   1.322       .  A
N359        C363   1.350       .  A
N359      Cu1012   2.082   1_545  S
N360        C361   1.344       .  A
C361        C362   1.387       .  A
C361        H364   1.082       .  S
C362        C363   1.385       .  A
C363        H365   1.082       .  S
N366       N1023   1.323   1_544  A
N366        C370   1.349       .  A
N367       N1022   1.323   1_556  A
N367        C368   1.349       .  A
C368        C369   1.386   1_556  A
C368        H371   1.082       .  S
C369        C794   1.477       .  S
C369       C1026   1.385       .  A
C370       C1025   1.385   1_545  A
C370        H372   1.082       .  S
O373       Cu381   2.019       .  S
O373        C383   1.278       .  A
O374       Cu381   2.037       .  S
O374        C384   1.281       .  A
O375       Cu381   2.017       .  S
O375       C1041   1.278       .  A
O376       Cu381   2.005       .  S
O376        C386   1.279       .  A
O377      Cu1038   2.020       .  S
O377        C386   1.278       .  A
O378       Cu382   2.004       .  S
O378        C385   1.279       .  A
O379       Cu382   2.043       .  S
O379       C1040   1.282       .  A
O380       Cu382   2.029       .  S
O380       C1039   1.279   1_545  A
Cu381     Cu1038   2.371       .  S
Cu382      O1033   2.020       .  S
Cu382     Cu1037   2.371   1_545  S
C383       O1036   1.279       .  A
C384       O1035   1.282       .  A
C384        C398   1.492   1_455  S
C385       O1031   1.278   1_545  A
C385        C501   1.483       .  S
C386        C508   1.480       .  S
O387       Cu395   2.029       .  S
O387       C1053   1.280       .  A
O388       Cu395   2.042       .  S
O388       C1054   1.281       .  A
O389       Cu395   1.995       .  S
O389        C399   1.278       .  A
O390      Cu1051   2.010       .  S
O390        C400   1.277       .  A
O391       Cu396   1.999       .  S
O391        C400   1.278       .  A
O392       Cu396   2.019       .  S
O392       C1055   1.278       .  A
O393       Cu396   2.040       .  S
O393        C398   1.281       .  A
O394       Cu396   2.019       .  S
O394        C397   1.278       .  A
Cu395      O1046   2.010       .  S
Cu395     Cu1052   2.370   1_545  S
Cu396     Cu1051   2.370       .  S
C397       O1043   1.280       .  A
C398       O1044   1.281       .  A
C399       O1048   1.278   1_545  A
C399        C521   1.485       .  S
C400        C531   1.474       .  S
C401        C402   1.516       .  S
C401        C407   1.526       .  S
C401        C405   1.519       .  S
C401        C571   1.531       .  S
C402        H409   1.079       .  S
C402        C403   1.367       .  D
C403        C404   1.549       .  S
C404        C408   1.562       .  S
C404        C406   1.559       .  S
C404        H410   1.108       .  S
C405        H411   1.079       .  S
C405        C406   1.372       .  D
C406        C454   1.511       .  S
C407        H412   1.086       .  S
C407        C408   1.373       .  D
C408        C438   1.477       .  S
C413        C414   1.520       .  S
C413        C419   1.521       .  S
C413        C417   1.525       .  S
C413        C561   1.542       .  S
C414        H421   1.074       .  S
C414        C415   1.371       .  D
C415        C416   1.555       .  S
C416        C420   1.556       .  S
C416        C418   1.553       .  S
C416        H422   1.108       .  S
C417        H423   1.070       .  S
C417        C418   1.373       .  D
C418        C466   1.506       .  S
C419        H424   1.086       .  S
C419        C420   1.370       .  D
C420        C428   1.476       .  S
N425        N426   1.323       .  A
N425        C429   1.343       .  A
N425       Cu433   2.084       .  S
N426        C427   1.350       .  A
N426       Cu432   2.092   1_554  S
C427        C428   1.388       .  A
C427        H430   1.082       .  S
C428        C429   1.384       .  A
C429        H431   1.082       .  S
Cu432       N435   2.092       .  S
Cu433       N443   2.084   1_554  S
Cu434       N436   2.094       .  S
Cu434       N442   2.094       .  S
N435        N436   1.324       .  A
N435        C439   1.351       .  A
N436        C437   1.344       .  A
C437        C438   1.385       .  A
C437        H440   1.082       .  S
C438        C439   1.387       .  A
C439        H441   1.082       .  S
N442        N443   1.322       .  A
N442        C446   1.350       .  A
N443        C444   1.349       .  A
C444        C445   1.386       .  A
C444        H447   1.082   1_556  S
C445        C446   1.388       .  A
C446        H448   1.082       .  S
C449        C450   1.520       .  S
C449        C455   1.518       .  S
C449        C453   1.528       .  S
C449        C511   1.544       .  S
C450        H457   1.086       .  S
C450        C451   1.369       .  D
C451        C452   1.556       .  S
C451        C476   1.472       .  S
C452        C456   1.553       .  S
C452        C454   1.555       .  S
C452        H458   1.108       .  S
C453        H459   1.069       .  S
C453        C454   1.376       .  D
C455        H460   1.073       .  S
C455        C456   1.372       .  D
C461        C462   1.521       .  S
C461        C467   1.522       .  S
C461        C465   1.528       .  S
C461        C498   1.538       .  S
C462        H469   1.086       .  S
C462        C463   1.371       .  D
C463        C464   1.558       .  S
C463        C486   1.472       .  S
C464        C468   1.543       .  S
C464        C466   1.549       .  S
C464        H470   1.107       .  S
C465        H471   1.073       .  S
C465        C466   1.371       .  D
C467        H472   1.078       .  S
C467        C468   1.370       .  D
N473        N474   1.323       .  A
N473        C477   1.343       .  A
N473       Cu481   2.086       .  S
N474        C475   1.348       .  A
N474       Cu480   2.080   1_556  S
C475        C476   1.385       .  A
C475        H478   1.082       .  S
C476        C477   1.385       .  A
C477        H479   1.082       .  S
Cu480      N1139   2.078       .  S
Cu481       N491   2.086       .  S
Cu482       N484   2.081       .  S
Cu482       N490   2.080       .  S
N483        N484   1.322       .  A
N483        C487   1.349       .  A
N483      Cu1136   2.079   1_545  S
N484        C485   1.342       .  A
C485        C486   1.384       .  A
C485        H488   1.082       .  S
C486        C487   1.385       .  A
C487        H489   1.082       .  S
N490       N1147   1.322   1_544  A
N490        C494   1.347       .  A
N491       N1146   1.322   1_556  A
N491        C492   1.349       .  A
C492       C1149   1.386   1_556  A
C492        H495   1.082       .  S
C493        C494   1.384   1_565  A
C493       C1148   1.386   1_554  A
C494        H496   1.082       .  S
C497        C498   1.413       .  A
C497        C502   1.393       .  A
C497        H504   1.075       .  S
C498        C499   1.415       .  A
C499        C500   1.403       .  A
C499        F506   1.357       .  S
C500        C501   1.404       .  A
C500        H505   1.083   1_545  S
C501        C502   1.404       .  A
C502        F503   1.358       .  S
C507        C508   1.403       .  A
C507        C512   1.404       .  A
C507        H514   1.083       .  S
C508        C509   1.404       .  A
C509        C510   1.396       .  A
C509        F516   1.358       .  S
C510        C511   1.411       .  A
C510        H515   1.077       .  S
C511        C512   1.417       .  A
C512        F513   1.358       .  S
C517        C518   1.413       .  A
C517        C522   1.388       .  A
C517        H524   1.078       .  S
C518        C519   1.415       .  A
C519        C520   1.406       .  A
C519        F526   1.357       .  S
C520        C521   1.407       .  A
C520       H1181   1.083   1_545  S
C521        C522   1.404       .  A
C522        F523   1.358       .  S
H525       C1176   1.083       .  S
C527        C528   1.408       .  A
C527        C532   1.393       .  A
C527        H534   1.078       .  S
C528        C529   1.417       .  A
C529        C530   1.401       .  A
C529        F536   1.358       .  S
C530        C531   1.401       .  A
C530        H535   1.083       .  S
C531        C532   1.403       .  A
C532        F533   1.358       .  S
C537        C538   1.411       .  A
C537        C542   1.394       .  A
C537        H544   1.077       .  S
C538        C539   1.415       .  A
C539        C540   1.402       .  A
C539        F546   1.358       .  S
C540        C541   1.403       .  A
C540        H545   1.083       .  S
C541        C542   1.404       .  A
C542        F543   1.358       .  S
C547        C548   1.407       .  A
C547        C552   1.407       .  A
C547        H554   1.083       .  S
C548        C549   1.405       .  A
C549        C550   1.391       .  A
C549        F556   1.358       .  S
C550        C551   1.414       .  A
C550        H555   1.078       .  S
C551        C552   1.415       .  A
C552        F553   1.357       .  S
C557        C558   1.402       .  A
C557        C562   1.397       .  A
C557        H564   1.084       .  S
C558        C559   1.405       .  A
C559        C560   1.400       .  A
C559        F566   1.357       .  S
C560        C561   1.412       .  A
C560        H565   1.083       .  S
C561        C562   1.416       .  A
C562        F563   1.356       .  S
C567        C568   1.400       .  A
C567        C572   1.390       .  A
C567        H574   1.083       .  S
C568        C569   1.409       .  A
C569        C570   1.406       .  A
C569        F576   1.357       .  S
C570        C571   1.410       .  A
C570        H575   1.081       .  S
C571        C572   1.419       .  A
C572        F573   1.357       .  S
C577        C578   1.402       .  A
C577        C582   1.396       .  A
C577        H584   1.084       .  S
C578        C579   1.405       .  A
C579        C580   1.401       .  A
C579        F586   1.357   1_545  S
C580        C581   1.414       .  A
C580        H585   1.083       .  S
C581        C582   1.413       .  A
C582        F583   1.356       .  S
C587        C588   1.400       .  A
C587        C592   1.391       .  A
C587        H594   1.083       .  S
C588        C589   1.408       .  A
C589        C590   1.407       .  A
C589       F1252   1.357       .  S
C590        C591   1.415       .  A
C590        H595   1.083       .  S
C591        C592   1.419       .  A
C592        F593   1.354       .  S
F596       C1245   1.357   1_545  S
C597        C598   1.402       .  A
C597        C602   1.400       .  A
C597       H1260   1.083   1_545  S
C598        C599   1.403       .  A
C599        C600   1.395       .  A
C599        F606   1.358       .  S
C600        C601   1.412       .  A
C600        H605   1.076       .  S
C601        C602   1.416       .  A
C602        F603   1.358       .  S
H604       C1253   1.083       .  S
C607        C608   1.397       .  A
C607        C612   1.384       .  A
C607        H614   1.083       .  S
C608        C609   1.411       .  A
C609        C610   1.409       .  A
C609        F616   1.357       .  S
C610        C611   1.409       .  A
C610        H615   1.081       .  S
C611        C612   1.418       .  A
C612        F613   1.358       .  S
C617        C618   1.406       .  A
C617        C622   1.407       .  A
C617        H624   1.083       .  S
C618        C619   1.406       .  A
C619        C620   1.392       .  A
C619        F626   1.358       .  S
C620        C621   1.413       .  A
C620        H625   1.078       .  S
C621        C622   1.416       .  A
C622        F623   1.357       .  S
C627        C628   1.413       .  A
C627        C632   1.400       .  A
C627        H634   1.083       .  S
C628        C629   1.414       .  A
C629        C630   1.397       .  A
C629        F636   1.356       .  S
C630        C631   1.401       .  A
C630        H635   1.084       .  S
C631        C632   1.404       .  A
C632        F633   1.358       .  S
C637        C638   1.414       .  A
C637        C642   1.391       .  A
C637        H644   1.076       .  S
C638        C639   1.415       .  A
C639        C640   1.404       .  A
C639        F646   1.357       .  S
C640        C641   1.405       .  A
C640        H645   1.083       .  S
C641        C642   1.404       .  A
C642        F643   1.358       .  S
C647        C648   1.402       .  A
C647        C652   1.401       .  A
C647        H654   1.083       .  S
C648        C649   1.404       .  A
C649        C650   1.395       .  A
C649        F656   1.358       .  S
C650        C651   1.411       .  A
C650        H655   1.076       .  S
C651        C652   1.416       .  A
C652        F653   1.358       .  S
O657       Cu665   2.021       .  S
O657        C667   1.278       .  A
O658       Cu665   2.044       .  S
O658        C668   1.282       .  A
O659       Cu665   2.019   1_554  S
O659        C669   1.278       .  A
O660       Cu665   2.007       .  S
O660        C670   1.279       .  A
O661       Cu666   2.014       .  S
O661        C670   1.277       .  A
O662       Cu666   1.996   1_554  S
O662        C669   1.278       .  A
O663       Cu666   2.049       .  S
O663        C668   1.282       .  A
O664       Cu666   2.032       .  S
O664        C667   1.280       .  A
Cu665      Cu666   2.370       .  S
C667        C977   1.478       .  S
C668        C684   1.497       .  S
C669       C1297   1.484       .  S
C670       C1304   1.478       .  S
O671       Cu679   2.030   1_554  S
O671        C681   1.280       .  A
O672       Cu679   2.010       .  S
O672        C682   1.279       .  A
O673       Cu679   2.024       .  S
O673        C683   1.278       .  A
O674       Cu679   2.045       .  S
O674        C684   1.282       .  A
O675       Cu680   2.048       .  S
O675        C684   1.282       .  A
O676       Cu680   2.036       .  S
O676        C683   1.281       .  A
O677       Cu680   2.009       .  S
O677        C682   1.276       .  A
O678       Cu680   2.000   1_554  S
O678        C681   1.278       .  A
Cu679      Cu680   2.369       .  S
C681       C1274   1.489       .  S
C682       C1287   1.475       .  S
C683       C1101   1.481       .  S
C685        C686   1.521       .  S
C685        C691   1.516       .  S
C685        C689   1.530       .  S
C685       C1284   1.541       .  S
C686        H693   1.075       .  S
C686        C687   1.372       .  D
C687        C688   1.554       .  S
C687        C864   1.513       .  S
C688        C692   1.560       .  S
C688        C690   1.547       .  S
C688        H694   1.107       .  S
C689        H695   1.073       .  S
C689        C690   1.375       .  D
C690        C738   1.503       .  S
C691        H696   1.087       .  S
C691        C692   1.367       .  D
C692        C712   1.477       .  S
C697        C698   1.515       .  S
C697        C703   1.522       .  S
C697        C701   1.528       .  S
C697       C1277   1.537       .  S
C698        H705   1.079       .  S
C698        C699   1.366       .  D
C699        C700   1.551       .  S
C699        C876   1.505       .  S
C700        C704   1.563       .  S
C700        C702   1.554       .  S
C700        H706   1.108       .  S
C701        H707   1.076       .  S
C701        C702   1.376       .  D
C702        C750   1.516       .  S
C703        H708   1.086       .  S
C703        C704   1.372       .  D
C704        C722   1.476       .  S
N709        N710   1.322       .  A
N709        C713   1.344       .  A
N709       Cu717   2.092       .  S
N710        C711   1.349       .  A
N710       Cu716   2.081       .  S
C711        C712   1.386       .  A
C711        H714   1.082       .  S
C712        C713   1.388       .  A
C713        H715   1.082       .  S
Cu716       N719   2.082       .  S
Cu717       N727   2.091       .  S
Cu718       N720   2.096       .  S
Cu718       N726   2.096       .  S
N719        N720   1.323       .  A
N719        C723   1.349       .  A
N720        C721   1.344       .  A
C721        C722   1.387       .  A
C721        H724   1.082       .  S
C722        C723   1.385       .  A
C723        H725   1.082       .  S
N726        N727   1.323       .  A
N726        C730   1.351       .  A
N727        C728   1.349       .  A
C728        C729   1.386       .  A
C728        H731   1.082       .  S
C729        C917   1.481       .  S
C729        C730   1.388       .  A
C730        H732   1.082       .  S
C733        C734   1.526       .  S
C733        C739   1.516       .  S
C733        C737   1.521       .  S
C733       C1267   1.527       .  S
C734        H741   1.085       .  S
C734        C735   1.376       .  D
C735        C736   1.560       .  S
C735        C770   1.474       .  S
C736        C740   1.547       .  S
C736        C738   1.553       .  S
C736        H742   1.107       .  S
C737        H743   1.081       .  S
C737        C738   1.368       .  D
C739        H744   1.078       .  S
C739        C740   1.366       .  D
C740        C811   1.506       .  S
C745        C746   1.520       .  S
C745        C751   1.516       .  S
C745        C749   1.523       .  S
C745       C1257   1.539       .  S
C746        H753   1.087       .  S
C746        C747   1.368       .  D
C747        C748   1.559       .  S
C747        C760   1.476       .  S
C748        C752   1.554       .  S
C748        C750   1.564       .  S
C748        H754   1.108       .  S
C749        H755   1.068       .  S
C749        C750   1.375       .  D
C751        H756   1.079       .  S
C751        C752   1.370       .  D
C752        C823   1.511       .  S
N757        N758   1.322       .  A
N757        C761   1.343       .  A
N757       Cu765   2.087       .  S
N758        C759   1.350       .  A
C759        C760   1.389       .  A
C759        H762   1.082       .  S
C760        C761   1.385       .  A
C761        H763   1.082       .  S
Cu764       N767   2.088       .  S
Cu766       N768   2.082       .  S
Cu766       N774   2.082       .  S
N767        N768   1.324       .  A
N767        C771   1.350       .  A
N768        C769   1.343       .  A
C769        C770   1.383       .  A
C769        H772   1.082       .  S
C770        C771   1.385       .  A
C771        H773   1.082       .  S
N774        N775   1.322   1_565  A
N774        C778   1.348       .  A
C776        H779   1.082       .  S
C777       C1039   1.476       .  S
C777        C778   1.385       .  A
C778        H780   1.082       .  S
O781       Cu789   1.998   1_556  S
O781        C791   1.279       .  A
O782       Cu789   2.012       .  S
O783       Cu789   2.039       .  S
O784       Cu789   2.028       .  S
O785       Cu790   2.021       .  S
O785        C794   1.278   1_556  A
O786       Cu790   2.044       .  S
O786        C793   1.281   1_556  A
O787       Cu790   2.010   1_554  S
O787        C792   1.279       .  A
O788       Cu790   2.027       .  S
C791       C1244   1.489       .  S
C792       C1234   1.477       .  S
C793        C806   1.492       .  S
O795       Cu803   2.025       .  S
O796       Cu803   2.037       .  S
O797       Cu803   2.007       .  S
O798       Cu803   1.989   1_556  S
O798        C808   1.278       .  A
O799       Cu804   2.023       .  S
O800       Cu804   2.009   1_554  S
O800        C807   1.279       .  A
O801       Cu804   2.044       .  S
O801        C806   1.282   1_556  A
O802       Cu804   2.018       .  S
O802        C805   1.278   1_556  A
C805       C1149   1.475       .  S
C807       C1254   1.477       .  S
C808       C1264   1.483       .  S
C809        C810   1.515       .  S
C809        C815   1.523       .  S
C809        C813   1.527       .  S
C809       C1247   1.537       .  S
C810        H817   1.078       .  S
C810        C811   1.367       .  D
C811        C812   1.549       .  S
C812        C816   1.563       .  S
C812        C814   1.552       .  S
C812        H818   1.108       .  S
C813        H819   1.076       .  S
C813        C814   1.376       .  D
C814        C862   1.513       .  S
C815        H820   1.086       .  S
C815        C816   1.372       .  D
C816        C846   1.476       .  S
C821        C822   1.519       .  S
C821        C827   1.518       .  S
C821        C825   1.530       .  S
C821       C1237   1.541       .  S
C822        H829   1.077       .  S
C822        C823   1.370       .  D
C823        C824   1.554       .  S
C824        C828   1.557       .  S
C824        C826   1.549       .  S
C824        H830   1.108       .  S
C825        H831   1.072       .  S
C825        C826   1.375       .  D
C826        C874   1.504       .  S
C827        H832   1.086       .  S
C827        C828   1.368       .  D
C828        C836   1.473       .  S
N833        N834   1.322       .  A
N833        C837   1.344       .  A
N833       Cu841   2.088       .  S
N834        C835   1.348       .  A
C835        C836   1.386       .  A
C835        H838   1.082       .  S
C836        C837   1.386       .  A
C837        H839   1.082       .  S
Cu840       N843   2.080       .  S
Cu841       N851   2.087       .  S
Cu842       N844   2.091       .  S
Cu842       N850   2.090       .  S
N843        N844   1.323       .  A
N843        C847   1.350       .  A
N844        C845   1.344       .  A
C845        C846   1.387       .  A
C845        H848   1.082       .  S
C846        C847   1.385       .  A
C847        H849   1.082       .  S
N850        C854   1.348       .  A
N851        C852   1.349       .  A
C852        H855   1.082       .  S
C853       C1053   1.477       .  S
C853        C854   1.386   1_545  A
C854        H856   1.082       .  S
C857        C858   1.522       .  S
C857        C863   1.517       .  S
C857        C861   1.524       .  S
C857       C1307   1.538       .  S
C858        H865   1.086       .  S
C858        C859   1.369       .  D
C859        C860   1.554       .  S
C859        C884   1.473       .  S
C860        C864   1.555       .  S
C860        C862   1.565       .  S
C860        H866   1.108       .  S
C861        H867   1.068       .  S
C861        C862   1.374       .  D
C863        H868   1.077       .  S
C863        C864   1.368       .  D
C869        C870   1.524       .  S
C869        C875   1.519       .  S
C869        C873   1.528       .  S
C869       C1294   1.536       .  S
C870        H877   1.086       .  S
C870        C871   1.372       .  D
C871        C872   1.560       .  S
C871        C894   1.476       .  S
C872        C876   1.544       .  S
C872        C874   1.551       .  S
C872        H878   1.107       .  S
C873        H879   1.076       .  S
C873        C874   1.370       .  D
C875        H880   1.079       .  S
C875        C876   1.369       .  D
N881        N882   1.323       .  A
N881        C885   1.343       .  A
N881       Cu889   2.087       .  S
N882        C883   1.349       .  A
N882       Cu888   2.088       .  S
C883        C884   1.387       .  A
C883        H886   1.082       .  S
C884        C885   1.384       .  A
C885        H887   1.082       .  S
Cu888       N891   2.086       .  S
Cu889       N899   2.087       .  S
Cu890       N892   2.085       .  S
Cu890       N898   2.085       .  S
N891        N892   1.323       .  A
N891        C895   1.351       .  A
N892        C893   1.343       .  A
C893        C894   1.384       .  A
C893        H896   1.082       .  S
C894        C895   1.386       .  A
C895        H897   1.082       .  S
N898        N899   1.321       .  A
N898        C902   1.348       .  A
N899        C900   1.349       .  A
C900        C901   1.387       .  A
C900        H903   1.082       .  S
C901        C929   1.479       .  S
C901        C902   1.386       .  A
C902        H904   1.082       .  S
O905       Cu913   2.024       .  S
O905        C915   1.279       .  A
O906       Cu913   2.013       .  S
O906        C916   1.280       .  A
O907       Cu913   2.025       .  S
O907        C917   1.278       .  A
O908       Cu913   2.048       .  S
O908        C918   1.282       .  A
O909       Cu914   2.049       .  S
O909        C918   1.282       .  A
O910       Cu914   2.034       .  S
O910        C917   1.280       .  A
O911       Cu914   2.009       .  S
O911        C916   1.277       .  A
O912       Cu914   1.995       .  S
O912        C915   1.278       .  A
Cu913      Cu914   2.369       .  S
C915       C1224   1.487       .  S
C916       C1214   1.479       .  S
C918        C930   1.498   1_455  S
O919       Cu927   2.023       .  S
O919        C929   1.279       .  A
O920       Cu927   2.047       .  S
O920        C930   1.282       .  A
O921       Cu927   2.023       .  S
O921        C931   1.279       .  A
O922       Cu927   2.004       .  S
O922        C932   1.279       .  A
O923       Cu928   2.014       .  S
O923        C932   1.277       .  A
O924       Cu928   2.003       .  S
O924        C931   1.279       .  A
O925       Cu928   2.049       .  S
O925        C930   1.282       .  A
O926       Cu928   2.032       .  S
O926        C929   1.280       .  A
Cu927      Cu928   2.369       .  S
C931       C1204   1.490       .  S
C932       C1197   1.478       .  S
C933        C934   1.523       .  S
C933        C939   1.516       .  S
C933        C937   1.529       .  S
C933       C1207   1.538       .  S
C934        H941   1.086       .  S
C934        C935   1.373       .  D
C935        C936   1.564       .  S
C935        C970   1.479       .  S
C936        C940   1.548       .  S
C936        C938   1.551       .  S
C936        H942   1.107       .  S
C937        H943   1.077       .  S
C937        C938   1.373       .  D
C938        C986   1.509       .  S
C939        H944   1.079       .  S
C939        C940   1.368       .  D
C940       C1059   1.507   1_655  S
C945        C946   1.519       .  S
C945        C951   1.516       .  S
C945        C949   1.526       .  S
C945       C1194   1.538       .  S
C946        H953   1.086       .  S
C946        C947   1.368       .  D
C947        C948   1.557       .  S
C947        C960   1.475       .  S
C948        C952   1.556       .  S
C948        C950   1.559       .  S
C948        H954   1.108       .  S
C949        H955   1.069       .  S
C949        C950   1.374       .  D
C950        C998   1.512       .  S
C951        H956   1.076       .  S
C951        C952   1.371       .  D
C952       C1071   1.512   1_655  S
N957        N958   1.323       .  A
N957        C961   1.343       .  A
N957       Cu965   2.085       .  S
N958        C959   1.350       .  A
N958       Cu964   2.090   1_554  S
C959        C960   1.388       .  A
C959        H962   1.082       .  S
C960        C961   1.385       .  A
C961        H963   1.082       .  S
Cu964       N967   2.090       .  S
Cu965       N975   2.085   1_554  S
Cu966       N968   2.091       .  S
Cu966       N974   2.090       .  S
N967        N968   1.324       .  A
N967        C971   1.351       .  A
N968        C969   1.344       .  A
C969        C970   1.386       .  A
C969        H972   1.082       .  S
C970        C971   1.387       .  A
C971        H973   1.082       .  S
N974        N975   1.322       .  A
N974        C978   1.349       .  A
N975        C976   1.348       .  A
C976        C977   1.385       .  A
C976        H979   1.082   1_556  S
C977        C978   1.387       .  A
C978        H980   1.082       .  S
C981        C982   1.515       .  S
C981        C987   1.516       .  S
C981        C985   1.529       .  S
C981       C1184   1.535       .  S
C982        H989   1.073       .  S
C982        C983   1.368       .  D
C983        C984   1.557       .  S
C983       C1112   1.513   1_655  S
C984        C988   1.560       .  S
C984        C986   1.557       .  S
C984        H990   1.108       .  S
C985        H991   1.071       .  S
C985        C986   1.375       .  D
C987        H992   1.087       .  S
C987        C988   1.366       .  D
C988       C1008   1.476       .  S
C993        C994   1.516       .  S
C993        C999   1.521       .  S
C993        C997   1.527       .  S
C993       C1174   1.533       .  S
C994       H1001   1.079       .  S
C994        C995   1.365       .  D
C995        C996   1.551       .  S
C995       C1124   1.504   1_655  S
C996       C1000   1.565       .  S
C996        C998   1.552       .  S
C996       H1002   1.107       .  S
C997       H1003   1.077       .  S
C997        C998   1.372       .  D
C999       H1004   1.086       .  S
C999       C1000   1.373       .  D
C1000      C1018   1.477       .  S
N1005      N1006   1.322       .  A
N1005      C1009   1.345       .  A
N1005     Cu1013   2.094       .  S
N1006      C1007   1.348       .  A
N1006     Cu1012   2.082   1_556  S
C1007      C1008   1.386       .  A
C1007      H1010   1.082       .  S
C1008      C1009   1.389       .  A
C1009      H1011   1.082       .  S
Cu1013     N1023   2.092       .  S
Cu1014     N1016   2.090       .  S
Cu1014     N1022   2.089       .  S
N1015      N1016   1.322       .  A
N1015      C1019   1.350       .  A
N1016      C1017   1.344       .  A
C1017      C1018   1.387       .  A
C1017      H1020   1.082       .  S
C1018      C1019   1.385       .  A
C1019      H1021   1.082       .  S
N1022      C1026   1.349       .  A
N1023      C1024   1.349       .  A
C1024      C1025   1.386   1_556  A
C1024      H1027   1.082       .  S
C1026      H1028   1.082       .  S
O1029     Cu1037   2.019       .  S
O1029      C1039   1.278       .  A
O1030     Cu1037   2.037       .  S
O1030      C1040   1.281   1_565  A
O1031     Cu1037   2.017       .  S
O1032     Cu1037   2.005       .  S
O1032      C1042   1.279       .  A
O1033      C1042   1.278   1_545  A
O1034     Cu1038   2.004       .  S
O1034      C1041   1.279       .  A
O1035     Cu1038   2.043       .  S
O1036     Cu1038   2.028       .  S
C1040      C1054   1.492   1_455  S
C1041      C1157   1.483       .  S
C1042      C1164   1.480       .  S
O1043     Cu1051   2.029       .  S
O1044     Cu1051   2.042       .  S
O1045     Cu1051   1.995       .  S
O1045      C1055   1.278       .  A
O1046      C1056   1.277   1_545  A
O1047     Cu1052   1.999       .  S
O1047      C1056   1.278       .  A
O1048     Cu1052   2.019       .  S
O1049     Cu1052   2.040       .  S
O1049      C1054   1.281   1_565  A
O1050     Cu1052   2.019       .  S
O1050      C1053   1.278   1_565  A
C1055      C1177   1.485       .  S
C1056      C1187   1.474       .  S
C1057      C1058   1.516       .  S
C1057      C1063   1.526       .  S
C1057      C1061   1.519       .  S
C1057      C1227   1.531       .  S
C1058      H1065   1.079       .  S
C1058      C1059   1.367       .  D
C1059      C1060   1.549       .  S
C1060      C1064   1.562       .  S
C1060      C1062   1.559       .  S
C1060      H1066   1.108       .  S
C1061      H1067   1.079       .  S
C1061      C1062   1.372       .  D
C1062      C1110   1.511       .  S
C1063      H1068   1.086       .  S
C1063      C1064   1.373       .  D
C1064      C1094   1.477       .  S
C1069      C1070   1.520       .  S
C1069      C1075   1.521       .  S
C1069      C1073   1.525       .  S
C1069      C1217   1.542       .  S
C1070      H1077   1.075       .  S
C1070      C1071   1.371       .  D
C1071      C1072   1.555       .  S
C1072      C1076   1.556       .  S
C1072      C1074   1.553       .  S
C1072      H1078   1.108       .  S
C1073      H1079   1.070       .  S
C1073      C1074   1.373       .  D
C1074      C1122   1.506       .  S
C1075      H1080   1.086       .  S
C1075      C1076   1.370       .  D
C1076      C1084   1.476       .  S
N1081      N1082   1.323       .  A
N1081      C1085   1.343       .  A
N1081     Cu1089   2.084       .  S
N1082      C1083   1.350       .  A
N1082     Cu1088   2.092   1_554  S
C1083      C1084   1.388       .  A
C1083      H1086   1.082       .  S
C1084      C1085   1.384       .  A
C1085      H1087   1.082       .  S
Cu1088     N1091   2.092       .  S
Cu1089     N1099   2.084   1_554  S
Cu1090     N1092   2.094       .  S
Cu1090     N1098   2.094       .  S
N1091      N1092   1.324       .  A
N1091      C1095   1.351       .  A
N1092      C1093   1.344       .  A
C1093      C1094   1.385       .  A
C1093      H1096   1.082       .  S
C1094      C1095   1.387       .  A
C1095      H1097   1.082       .  S
N1098      N1099   1.322       .  A
N1098      C1102   1.350       .  A
N1099      C1100   1.349       .  A
C1100      C1101   1.386       .  A
C1100      H1103   1.082   1_556  S
C1101      C1102   1.389       .  A
C1102      H1104   1.082       .  S
C1105      C1106   1.520       .  S
C1105      C1111   1.518       .  S
C1105      C1109   1.528       .  S
C1105      C1167   1.544       .  S
C1106      H1113   1.086       .  S
C1106      C1107   1.369       .  D
C1107      C1108   1.556       .  S
C1107      C1132   1.472       .  S
C1108      C1112   1.553       .  S
C1108      C1110   1.555       .  S
C1108      H1114   1.108       .  S
C1109      H1115   1.069       .  S
C1109      C1110   1.376       .  D
C1111      H1116   1.073       .  S
C1111      C1112   1.372       .  D
C1117      C1118   1.521       .  S
C1117      C1123   1.522       .  S
C1117      C1121   1.528       .  S
C1117      C1154   1.538       .  S
C1118      H1125   1.086       .  S
C1118      C1119   1.371       .  D
C1119      C1120   1.558       .  S
C1119      C1142   1.472       .  S
C1120      C1124   1.543       .  S
C1120      C1122   1.549       .  S
C1120      H1126   1.107       .  S
C1121      H1127   1.073       .  S
C1121      C1122   1.372       .  D
C1123      H1128   1.078       .  S
C1123      C1124   1.370       .  D
N1129      N1130   1.323       .  A
N1129      C1133   1.343       .  A
N1129     Cu1137   2.086       .  S
N1130      C1131   1.348       .  A
N1130     Cu1136   2.080   1_556  S
C1131      C1132   1.385       .  A
C1131      H1134   1.082       .  S
C1132      C1133   1.385       .  A
C1133      H1135   1.082       .  S
Cu1137     N1147   2.086       .  S
Cu1138     N1140   2.081       .  S
Cu1138     N1146   2.080       .  S
N1139      N1140   1.322       .  A
N1139      C1143   1.349       .  A
N1140      C1141   1.342       .  A
C1141      C1142   1.384       .  A
C1141      H1144   1.082       .  S
C1142      C1143   1.385       .  A
C1143      H1145   1.082       .  S
N1146      C1150   1.347       .  A
N1147      C1148   1.349       .  A
C1148      H1151   1.082       .  S
C1149      C1150   1.384       .  A
C1150      H1152   1.082       .  S
C1153      C1154   1.413       .  A
C1153      C1158   1.393       .  A
C1153      H1160   1.075       .  S
C1154      C1155   1.415       .  A
C1155      C1156   1.403       .  A
C1155      F1162   1.357       .  S
C1156      C1157   1.404       .  A
C1156      H1161   1.083       .  S
C1157      C1158   1.404       .  A
C1158      F1159   1.358       .  S
C1163      C1164   1.403       .  A
C1163      C1168   1.404       .  A
C1163      H1170   1.083   1_565  S
C1164      C1165   1.404       .  A
C1165      C1166   1.396       .  A
C1165      F1172   1.358       .  S
C1166      C1167   1.411       .  A
C1166      H1171   1.077       .  S
C1167      C1168   1.417       .  A
C1168      F1169   1.358       .  S
C1173      C1174   1.413       .  A
C1173      C1178   1.388       .  A
C1173      H1180   1.078       .  S
C1174      C1175   1.415       .  A
C1175      C1176   1.406       .  A
C1175      F1182   1.357       .  S
C1176      C1177   1.407       .  A
C1177      C1178   1.404       .  A
C1178      F1179   1.358       .  S
C1183      C1184   1.408       .  A
C1183      C1188   1.393       .  A
C1183      H1190   1.078       .  S
C1184      C1185   1.417       .  A
C1185      C1186   1.401       .  A
C1185      F1192   1.358       .  S
C1186      C1187   1.401       .  A
C1186      H1191   1.083   1_565  S
C1187      C1188   1.403       .  A
C1188      F1189   1.358       .  S
C1193      C1194   1.411       .  A
C1193      C1198   1.394       .  A
C1193      H1200   1.077       .  S
C1194      C1195   1.416       .  A
C1195      C1196   1.402       .  A
C1195      F1202   1.358       .  S
C1196      C1197   1.403       .  A
C1196      H1201   1.083       .  S
C1197      C1198   1.404       .  A
C1198      F1199   1.358       .  S
C1203      C1204   1.407       .  A
C1203      C1208   1.407       .  A
C1203      H1210   1.083       .  S
C1204      C1205   1.405       .  A
C1205      C1206   1.392       .  A
C1205      F1212   1.358       .  S
C1206      C1207   1.414       .  A
C1206      H1211   1.078       .  S
C1207      C1208   1.415       .  A
C1208      F1209   1.357       .  S
C1213      C1214   1.402       .  A
C1213      C1218   1.397       .  A
C1213      H1220   1.084       .  S
C1214      C1215   1.405       .  A
C1215      C1216   1.400       .  A
C1215      F1222   1.357       .  S
C1216      C1217   1.412       .  A
C1216      H1221   1.083       .  S
C1217      C1218   1.416       .  A
C1218      F1219   1.356       .  S
C1223      C1224   1.400       .  A
C1223      C1228   1.390       .  A
C1223      H1230   1.083       .  S
C1224      C1225   1.409       .  A
C1225      C1226   1.406       .  A
C1225      F1232   1.357       .  S
C1226      C1227   1.410       .  A
C1226      H1231   1.082       .  S
C1227      C1228   1.419       .  A
C1228      F1229   1.357       .  S
C1233      C1234   1.402       .  A
C1233      C1238   1.396       .  A
C1233      H1240   1.084       .  S
C1234      C1235   1.405       .  A
C1235      C1236   1.401       .  A
C1235      F1242   1.357       .  S
C1236      C1237   1.414       .  A
C1236      H1241   1.084       .  S
C1237      C1238   1.413       .  A
C1238      F1239   1.356       .  S
C1243      C1244   1.400       .  A
C1243      C1248   1.391       .  A
C1243      H1250   1.083       .  S
C1244      C1245   1.408       .  A
C1245      C1246   1.407       .  A
C1246      C1247   1.415       .  A
C1246      H1251   1.083       .  S
C1247      C1248   1.419       .  A
C1248      F1249   1.354       .  S
C1253      C1254   1.402       .  A
C1253      C1258   1.400       .  A
C1254      C1255   1.403       .  A
C1255      C1256   1.395       .  A
C1255      F1262   1.358       .  S
C1256      C1257   1.412       .  A
C1256      H1261   1.076       .  S
C1257      C1258   1.416       .  A
C1258      F1259   1.358       .  S
C1263      C1264   1.397       .  A
C1263      C1268   1.384       .  A
C1263      H1270   1.083       .  S
C1264      C1265   1.411       .  A
C1265      C1266   1.409       .  A
C1265      F1272   1.357   1_565  S
C1266      C1267   1.409       .  A
C1266      H1271   1.081       .  S
C1267      C1268   1.418       .  A
C1268      F1269   1.358       .  S
C1273      C1274   1.406       .  A
C1273      C1278   1.407       .  A
C1273      H1280   1.083       .  S
C1274      C1275   1.406       .  A
C1275      C1276   1.392       .  A
C1275      F1282   1.358       .  S
C1276      C1277   1.413       .  A
C1276      H1281   1.078       .  S
C1277      C1278   1.416       .  A
C1278      F1279   1.357       .  S
C1283      C1284   1.413       .  A
C1283      C1288   1.400       .  A
C1283      H1290   1.083       .  S
C1284      C1285   1.414       .  A
C1285      C1286   1.397       .  A
C1285      F1292   1.356       .  S
C1286      C1287   1.401       .  A
C1286      H1291   1.084       .  S
C1287      C1288   1.404       .  A
C1288      F1289   1.358       .  S
C1293      C1294   1.414       .  A
C1293      C1298   1.391       .  A
C1293      H1300   1.076       .  S
C1294      C1295   1.415       .  A
C1295      C1296   1.404       .  A
C1295      F1302   1.357       .  S
C1296      C1297   1.405       .  A
C1296      H1301   1.083       .  S
C1297      C1298   1.404       .  A
C1298      F1299   1.358       .  S
C1303      C1304   1.402       .  A
C1303      C1308   1.401       .  A
C1303      H1310   1.083       .  S
C1304      C1305   1.404       .  A
C1305      C1306   1.395       .  A
C1305      F1312   1.358       .  S
C1306      C1307   1.411       .  A
C1306      H1311   1.076       .  S
C1307      C1308   1.416       .  A
C1308      F1309   1.358       .  S
