geometry optimzed in LAMMPS
_audit_creation_date              2020-12-01 
_audit_creation_method            'lammps2cif' 
_symmetry_space_group_name_H-M    'P1' 
_symmetry_Int_Tables_number       1 
_symmetry_cell_setting            triclinic 
loop_ 
_symmetry_equiv_pos_as_xyz 
  x,y,z 
_cell_length_a                    27.95758118 
_cell_length_b                    27.960350195932055 
_cell_length_c                    110.82299274538948 
_cell_angle_alpha                 91.43571987344276 
_cell_angle_beta                  88.51688422972369 
_cell_angle_gamma                 122.32234428932041 
loop_ 
_atom_site_label 
_atom_site_type_symbol 
_atom_site_fract_x 
_atom_site_fract_y 
_atom_site_fract_z 
_atom_site_charge 
C1          C  0.00815287  0.29844969  0.07597111     0.04000
C2          C  0.05159035  0.33545732  0.08387378    -0.12100
C3          C  0.04514940  0.37227370  0.09167127     0.01500
C4          C  0.99573535  0.37352403  0.09108108    -0.10700
C5          C  0.95158399  0.33573886  0.08347120     0.04000
C6          C  0.95768258  0.29772640  0.07611672    -0.10100
H7          H  0.09012958  0.33529078  0.08399096     0.09600
H8          H  0.99055452  0.40213664  0.09693858     0.07100
H9          H  0.92354899  0.26852771  0.07022339     0.07000
C10         C  0.81061280  0.48977503  0.09049892     0.04000
C11         C  0.80891822  0.43865146  0.09015166    -0.12100
C12         C  0.84834196  0.43319931  0.08314394     0.01500
C13         C  0.88846575  0.47865770  0.07607479    -0.10700
C14         C  0.88869163  0.52887103  0.07566563     0.04000
C15         C  0.85011174  0.53445690  0.08307125    -0.10100
H16         H  0.77827167  0.40374598  0.09572013     0.09600
H17         H  0.91859152  0.47426934  0.07057717     0.07100
H18         H  0.85085390  0.57345475  0.08311656     0.07000
C19         C  0.68729709  0.13187886  0.09224653     0.04000
C20         C  0.64565826  0.11769560  0.08358246    -0.12100
C21         C  0.65361374  0.15702971  0.07483406     0.01500
C22         C  0.70343324  0.21098097  0.07486893    -0.10700
C23         C  0.74526090  0.22527256  0.08342424     0.04000
C24         C  0.73737449  0.18535908  0.09193307    -0.10100
H25         H  0.60835377  0.07531378  0.08325588     0.09600
H26         H  0.71015832  0.24139501  0.06810161     0.07100
H27         H  0.77010213  0.19630113  0.09845189     0.07000
C28         C  0.84819158  0.38037784  0.08326762     0.81100
N29         N  0.79842716  0.32928958  0.08317561    -0.77200
C30         C  0.79851955  0.28075495  0.08323646     0.83600
N31         N  0.84832263  0.28339245  0.08339129    -0.77100
C32         C  0.89810327  0.33406705  0.08346181     0.83600
N33         N  0.89798563  0.38257887  0.08341385    -0.78900
C34         C  0.69972864  0.87255331  0.90813150     0.04000
C35         C  0.74501957  0.87818050  0.91462914    -0.12100
C36         C  0.73825225  0.83304880  0.92138455     0.01500
C37         C  0.68623142  0.78116028  0.92122906    -0.10700
C38         C  0.63987370  0.77540947  0.91517310     0.04000
C39         C  0.64661828  0.82166752  0.90882189    -0.10100
H40         H  0.78559419  0.91788988  0.91448223     0.09600
H41         H  0.68108316  0.74599088  0.92629524     0.07100
H42         H  0.61113803  0.81735926  0.90404647     0.07000
C43         C  0.56143680  0.50814118  0.90571163     0.04000
C44         C  0.56551697  0.56044375  0.90681205    -0.12100
C45         C  0.52835113  0.56677007  0.91450693     0.01500
C46         C  0.48748809  0.52041989  0.92132998    -0.10700
C47         C  0.48421130  0.46860425  0.92070304     0.04000
C48         C  0.52010296  0.46235367  0.91262212    -0.10100
H49         H  0.59672971  0.59587422  0.90144617     0.09600
H50         H  0.45915594  0.52510258  0.92738978     0.07100
H51         H  0.51407673  0.42099425  0.91145959     0.07000
C52         C  0.53136722  0.62125810  0.91534826     0.81100
N53         N  0.58206786  0.67128142  0.91479370    -0.77200
C54         C  0.58456417  0.72123878  0.91562101     0.83600
N55         N  0.53593579  0.72096435  0.91704451    -0.77100
C56         C  0.48510024  0.67113847  0.91762350     0.83600
N57         N  0.48311046  0.62154366  0.91674694    -0.78900
C58         C  0.37556269  0.70455671  0.92829265     0.04000
C59         C  0.42692028  0.70671104  0.92701226    -0.12100
C60         C  0.43199275  0.67038415  0.91880670     0.01500
C61         C  0.38560888  0.63226105  0.91172673    -0.10700
C62         C  0.33482963  0.63083803  0.91253802     0.04000
C63         C  0.32960517  0.66606126  0.92102360    -0.10100
H64         H  0.46252601  0.73571465  0.93259201     0.09600
H65         H  0.38951777  0.60449826  0.90532973     0.07100
H66         H  0.28891253  0.66154637  0.92224635     0.07000
Zn67       Zn  0.19108077  0.00972412  0.98297486     1.49700
Zn68       Zn  0.21537873  0.95609415  0.00577979     1.49400
Zn69       Zn  0.24799110  0.08520571  0.00638334     1.49100
Zn70       Zn  0.11854186  0.98699942  0.00715232     1.49500
O71         O  0.19316796  0.00888107  0.00059537    -1.83200
O72         O  0.21891969  0.96210454  0.97580324    -0.73900
O73         O  0.28353880  0.99682699  0.01688040    -0.73700
O74         O  0.29076209  0.13811153  0.99267273    -0.73200
O75         O  0.23652387  0.92408612  0.99115205    -0.73900
O76         O  0.24257658  0.08896212  0.97648681    -0.73500
O77         O  0.30253911  0.08493565  0.01765104    -0.74100
O78         O  0.12032853  0.04893909  0.01744861    -0.73500
O79         O  0.15063296  0.89164769  0.01555324    -0.74200
O80         O  0.21057791  0.11848648  0.01591032    -0.73600
O81         O  0.08771684  0.91734637  0.01707460    -0.74100
O82         O  0.06295583  0.96796391  0.99391162    -0.74000
O83         O  0.11188221  0.97896245  0.97697005    -0.73800
C84         C  0.23558088  0.93125159  0.97983630     0.78000
C85         C  0.31216360  0.04764067  0.02090886     0.78500
C86         C  0.28163306  0.13463680  0.98140104     0.77500
C87         C  0.16050160  0.09939529  0.01981077     0.77800
C88         C  0.10354202  0.88365044  0.01949010     0.79000
C89         C  0.06584683  0.96559636  0.98246434     0.78000
C90         C  0.05626394  0.82148509  0.75982656     0.04000
C91         C  0.00887302  0.81089380  0.75332497    -0.12100
C92         C  0.01157012  0.85212828  0.74588168     0.01500
C93         C  0.06248346  0.90515344  0.74510848    -0.10700
C94         C  0.11088978  0.91575624  0.75112492     0.04000
C95         C  0.10779400  0.87345644  0.75832544    -0.10100
H96         H  0.96971051  0.76993445  0.75384671     0.09600
H97         H  0.06509994  0.93840811  0.73979495     0.07100
H98         H  0.14485807  0.88180059  0.76312344     0.07000
C99         C  0.37892541  0.00308108  0.73678973     0.04000
C100        C  0.32605157  0.99760826  0.73799312    -0.12100
C101        C  0.31816166  0.03189357  0.74622172     0.01500
C102        C  0.36308677  0.07120317  0.75347184    -0.10700
C103        C  0.41539348  0.07561912  0.75281167     0.04000
C104        C  0.42363545  0.04283818  0.74417145    -0.10100
H105        H  0.29126678  0.96740634  0.73236367     0.09600
H106        H  0.35660739  0.09695689  0.75996541     0.07100
H107        H  0.46531929  0.04961799  0.74303324     0.07000
C108        C  0.16519586  0.17509450  0.75317227     0.04000
C109        C  0.16867445  0.12711097  0.75406193    -0.12100
C110        C  0.20762881  0.12146554  0.74692429     0.01500
C111        C  0.24290437  0.16407568  0.73871085    -0.10700
C112        C  0.23861521  0.21143874  0.73733937     0.04000
C113        C  0.19902974  0.21619208  0.74453038    -0.10100
H114        H  0.14186027  0.09464644  0.76052152     0.09600
H115        H  0.27273454  0.15959560  0.73313070     0.07100
H116        H  0.19286764  0.25063361  0.74316663     0.07000
C117        C  0.26318099  0.02704656  0.74729344     0.81100
N118        N  0.21469367  0.97564440  0.74883586    -0.77200
C119        C  0.16406063  0.97150560  0.74991566     0.83600
N120        N  0.16224366  0.01901175  0.74938599    -0.77100
C121        C  0.21044730  0.07045717  0.74783210     0.83600
N122        N  0.26088201  0.07428693  0.74679606    -0.78900
Zn123      Zn  0.87839667  0.33710054  0.85056331     1.49700
Zn124      Zn  0.81807030  0.35988658  0.82905736     1.49400
Zn125      Zn  0.94939797  0.40314276  0.82687621     1.49100
Zn126      Zn  0.85662974  0.27040439  0.82555830     1.49500
O127        O  0.87544631  0.34261261  0.83301622    -1.83200
O128        O  0.82695281  0.35772139  0.85901136    -0.73900
O129        O  0.85291968  0.43217083  0.81953960    -0.73700
O130        O  0.00413470  0.44221344  0.84044699    -0.73200
O131        O  0.78311287  0.37131193  0.84426236    -0.73900
O132        O  0.95775180  0.39150397  0.85663381    -0.73500
O133        O  0.94412864  0.46220881  0.81797463    -0.74100
O134        O  0.91984631  0.27946762  0.81462537    -0.73500
O135        O  0.75699922  0.29783534  0.81854043    -0.74200
O136        O  0.98335567  0.37200781  0.81534421    -0.73600
O137        O  0.78718586  0.23920278  0.81543958    -0.74100
O138        O  0.84051588  0.21203391  0.83809892    -0.74000
O139        O  0.85307329  0.25762773  0.85558906    -0.73800
C140        C  0.79188987  0.37000021  0.85545272     0.78000
C141        C  0.90293015  0.46787999  0.81580750     0.78500
C142        C  0.00229227  0.43189761  0.85162199     0.77500
C143        C  0.96718006  0.32255766  0.81139893     0.77800
C144        C  0.75190936  0.25367984  0.81359632     0.79000
C145        C  0.84000003  0.21285144  0.84959108     0.78000
C146        C  0.72839469  0.40388873  0.58751487     0.04000
C147        C  0.78173570  0.41019957  0.58742947    -0.12100
C148        C  0.79131298  0.37303615  0.58059852     0.01500
C149        C  0.74778035  0.33085573  0.57339993    -0.10700
C150        C  0.69562789  0.32653502  0.57270520     0.04000
C151        C  0.68600153  0.36281256  0.57991092    -0.10100
H152        H  0.81466620  0.44178613  0.59323923     0.09600
H153        H  0.75490529  0.30196183  0.56813253     0.07100
H154        H  0.64523183  0.35857504  0.57971867     0.07000
C155        C  0.09084981  0.53530026  0.59469229     0.04000
C156        C  0.03792992  0.48494511  0.59352026    -0.12100
C157        C  0.99919302  0.47983993  0.58495051     0.01500
C158        C  0.01354766  0.52632540  0.57762050    -0.10700
C159        C  0.06705313  0.57716345  0.57860652     0.04000
C160        C  0.10500699  0.58090188  0.58720582    -0.10100
H161        H  0.02677160  0.44973541  0.59933686     0.09600
H162        H  0.98310928  0.52218029  0.57118441     0.07100
H163        H  0.14568365  0.62011361  0.58823936     0.07000
C164        C  0.91531397  0.20651444  0.57640696     0.04000
C165        C  0.92206245  0.26006038  0.57641380    -0.12100
C166        C  0.88778984  0.27130407  0.58389920     0.01500
C167        C  0.84741873  0.22906455  0.59161151    -0.10700
C168        C  0.84140157  0.17604380  0.59201952     0.04000
C169        C  0.87627022  0.16555889  0.58453523    -0.10100
H170        H  0.95237082  0.29219912  0.57027493     0.09600
H171        H  0.82079382  0.23762457  0.59735571     0.07100
H172        H  0.87436387  0.12610410  0.58530229     0.07000
C173        C  0.84484968  0.37494973  0.58163958     0.81100
N174        N  0.84319938  0.32565302  0.58206068    -0.77200
C175        C  0.89132694  0.32568768  0.58324291     0.83600
N176        N  0.94181671  0.37573433  0.58406791    -0.77100
C177        C  0.94414342  0.42561636  0.58369432     0.83600
N178        N  0.89546005  0.42505405  0.58249842    -0.78900
Zn179      Zn  0.57355614  0.70452901  0.68376173     1.49700
Zn180      Zn  0.53264176  0.74184793  0.66102442     1.49400
Zn181      Zn  0.64285991  0.73238516  0.65917272     1.49100
Zn182      Zn  0.52046561  0.61962798  0.66112251     1.49500
O183        O  0.56701144  0.69960249  0.66622254    -1.83200
O184        O  0.54266421  0.74945223  0.69084023    -0.73900
O185        O  0.58694933  0.80621781  0.64986343    -0.73700
O186        O  0.70315642  0.76328669  0.67184805    -0.73200
O187        O  0.51257507  0.77542733  0.67542352    -0.73900
O188        O  0.65457869  0.74214754  0.68913223    -0.73500
O189        O  0.66048861  0.79589552  0.64828372    -0.74100
O190        O  0.56573287  0.59560597  0.65092571    -0.73500
O191        O  0.46141838  0.68970182  0.65144139    -0.74200
O192        O  0.64997463  0.67525390  0.64920060    -0.73600
O193        O  0.45675520  0.60762602  0.65070852    -0.74100
O194        O  0.48649561  0.56799408  0.67561085    -0.74000
O195        O  0.52779832  0.62748432  0.69109234    -0.73800
C196        C  0.51989435  0.77457347  0.68671788     0.78000
C197        C  0.63560907  0.82102014  0.64550918     0.78500
C198        C  0.70138567  0.76366209  0.68332574     0.77500
C199        C  0.61635262  0.62296907  0.64677596     0.77800
C200        C  0.43803961  0.63838647  0.64780520     0.79000
C201        C  0.49438386  0.57782017  0.68692002     0.78000
C202        C  0.69797745  0.64291405  0.40974389     0.04000
C203        C  0.74337603  0.68139784  0.41713195    -0.12100
C204        C  0.73855763  0.71945333  0.42487474     0.01500
C205        C  0.68878111  0.72001638  0.42482200    -0.10700
C206        C  0.64271944  0.68099119  0.41780164     0.04000
C207        C  0.64725052  0.64194561  0.41044128    -0.10100
H208        H  0.78199141  0.68136426  0.41689288     0.09600
H209        H  0.68501095  0.74952761  0.43068007     0.07100
H210        H  0.61178619  0.61185747  0.40494555     0.07000
C211        C  0.34159497  0.52328465  0.40728030     0.04000
C212        C  0.39332444  0.57483654  0.40891498    -0.12100
C213        C  0.43574635  0.57777220  0.41599910     0.01500
C214        C  0.42624015  0.52891668  0.42156845    -0.10700
C215        C  0.37411750  0.47778010  0.42047985     0.04000
C216        C  0.33232080  0.47481626  0.41316643    -0.10100
H217        H  0.40114444  0.61244843  0.40443053     0.09600
H218        H  0.45880712  0.53113419  0.42710391     0.07100
H219        H  0.29377330  0.43410837  0.41178178     0.07000
C220        C  0.51215703  0.83965502  0.43245735     0.04000
C221        C  0.50995711  0.78845635  0.43107249    -0.12100
C222        C  0.54579628  0.78369688  0.42269335     0.01500
C223        C  0.58392029  0.83036498  0.41567533    -0.10700
C224        C  0.58535377  0.88114195  0.41663679     0.04000
C225        C  0.55033257  0.88596224  0.42525295    -0.10100
H226        H  0.48069580  0.75249820  0.43655692     0.09600
H227        H  0.61106130  0.82640696  0.40910329     0.07100
H228        H  0.55393234  0.92622548  0.42658301     0.07000
C229        C  0.54309326  0.72996366  0.42097961     0.81100
N230        N  0.49244509  0.68063554  0.41953103    -0.77200
C231        C  0.49038866  0.63143627  0.41749431     0.83600
N232        N  0.53913035  0.63174777  0.41693051    -0.77100
C233        C  0.58988048  0.68088351  0.41831862     0.83600
N234        N  0.59163396  0.72991911  0.42031561    -0.78900
Zn235      Zn  0.23843448  0.10753775  0.50663903     1.49700
Zn236      Zn  0.25232192  0.99979975  0.50659075     1.49400
Zn237      Zn  0.12785499  0.98298598  0.50589649     1.49100
Zn238      Zn  0.21285274  0.03391413  0.48316263     1.49500
O239        O  0.20771512  0.03047118  0.50069872    -1.83200
O240        O  0.30803035  0.13312001  0.51607012    -0.73900
O241        O  0.20183390  0.92918966  0.51666279    -0.73700
O242        O  0.10393538  0.02767198  0.51643508    -0.73200
O243        O  0.31837998  0.05959332  0.51680917    -0.73900
O244        O  0.18317400  0.11265252  0.51752417    -0.73500
O245        O  0.11693015  0.91813869  0.51585851    -0.74100
O246        O  0.13741022  0.98059025  0.47604453    -0.73500
O247        O  0.28647865  0.97856265  0.49246692    -0.74200
O248        O  0.07581119  0.94875394  0.49142711    -0.73600
O249        O  0.26497304  0.01108580  0.47673705    -0.74100
O250        O  0.23954713  0.11089845  0.47668832    -0.74000
O251        O  0.25764416  0.16325024  0.49330120    -0.73800
C252        C  0.33470132  0.11076372  0.51950313     0.78000
C253        C  0.14910301  0.90209292  0.51940906     0.78500
C254        C  0.13152289  0.07863934  0.52038857     0.77500
C255        C  0.08709997  0.95081864  0.48015041     0.77800
C256        C  0.28921530  0.98814609  0.48118887     0.79000
C257        C  0.25553845  0.15810487  0.48186632     0.78000
C258        C  0.03429431  0.04790612  0.25576929     0.04000
C259        C  0.99222722  0.00809935  0.24807381    -0.12100
C260        C  0.99815549  0.96727534  0.24182199     0.01500
C261        C  0.04688947  0.96572957  0.24356471    -0.10700
C262        C  0.09083335  0.00669040  0.25092884     0.04000
C263        C  0.08415004  0.04771115  0.25705984    -0.10100
H264        H  0.95370130  0.00810284  0.24722353     0.09600
H265        H  0.05169208  0.93427340  0.23875613     0.07100
H266        H  0.11771800  0.07946926  0.26271534     0.07000
C267        C  0.39787093  0.17437715  0.25897375     0.04000
C268        C  0.34628968  0.12197345  0.25835306    -0.12100
C269        C  0.29897880  0.11695082  0.25284013     0.01500
C270        C  0.30415505  0.16492339  0.24763480    -0.10700
C271        C  0.35635533  0.21676020  0.24749160     0.04000
C272        C  0.40268057  0.22134248  0.25335581    -0.10100
H273        H  0.34255882  0.08536345  0.26247803     0.09600
H274        H  0.26826185  0.16134243  0.24319501     0.07100
H275        H  0.44268211  0.26152222  0.25341587     0.07000
C276        C  0.23524041  0.85347988  0.24545569     0.04000
C277        C  0.23422075  0.90316197  0.24498439    -0.12100
C278        C  0.19474094  0.90891186  0.25200289     0.01500
C279        C  0.15696815  0.86493642  0.25971389    -0.10700
C280        C  0.15899298  0.81608694  0.26069766     0.04000
C281        C  0.19862732  0.81110668  0.25359836    -0.10100
H282        H  0.26341509  0.93689414  0.23900753     0.09600
H283        H  0.12726824  0.86964807  0.26529089     0.07100
H284        H  0.20314738  0.77547269  0.25477729     0.07000
C285        C  0.14465515  0.00842307  0.25166967     0.81100
N286        N  0.14474763  0.95972663  0.25150907    -0.77200
C287        C  0.19446739  0.96168583  0.25175154     0.83600
N288        N  0.24413752  0.01267533  0.25216966    -0.77100
C289        C  0.24458765  0.06155856  0.25237560     0.83600
N290        N  0.19472026  0.05911887  0.25211206    -0.78900
Zn291      Zn  0.52197687  0.67209576  0.18577299     1.49700
Zn292      Zn  0.45775314  0.67764295  0.16301375     1.49400
Zn293      Zn  0.58941992  0.72397072  0.16060604     1.49100
Zn294      Zn  0.49998031  0.59188396  0.16220138     1.49500
O295        O  0.51744054  0.66635957  0.16797920    -1.83200
O296        O  0.47135104  0.69848004  0.19309895    -0.73900
O297        O  0.48923138  0.74622875  0.15264770    -0.73700
O298        O  0.64709672  0.76738813  0.17338725    -0.73200
O299        O  0.42021231  0.69066400  0.17727410    -0.73900
O300        O  0.60368363  0.72766487  0.19076806    -0.73500
O301        O  0.58115855  0.77932377  0.15095725    -0.66900
O302        O  0.56306094  0.59638071  0.15175869    -0.73500
O303        O  0.39837204  0.61148467  0.15335997    -0.74200
O304        O  0.62212239  0.68908101  0.14969906    -0.73600
O305        O  0.42917877  0.55289818  0.15221051    -0.74100
O306        O  0.48574081  0.54239326  0.17636009    -0.74000
O307        O  0.49572683  0.59477460  0.19272612    -0.73800
C308        C  0.43132377  0.70079579  0.18844306     0.78000
C309        C  0.53847734  0.78240450  0.14866197     0.78500
C310        C  0.64784347  0.76318477  0.18477252     0.77500
C311        C  0.60814393  0.63845892  0.14733619     0.77800
C312        C  0.39322621  0.56556683  0.14961754     0.79000
C313        C  0.48407865  0.54808798  0.18776648     0.78000
Zn314      Zn  0.78826393  0.31696681  0.34083518     1.49700
Zn315      Zn  0.87903104  0.28110638  0.34160459     1.49400
Zn316      Zn  0.85802672  0.32153730  0.31692281     1.49100
Zn317      Zn  0.92040501  0.41187275  0.33881550     1.49500
O318        O  0.86154242  0.33316561  0.33452800    -1.83200
O319        O  0.75300227  0.25022353  0.35204585    -0.73900
O320        O  0.89664535  0.23954059  0.32893491    -0.73700
O321        O  0.77871279  0.29209985  0.31071674    -0.73200
O322        O  0.81580224  0.22467310  0.35244921    -0.73900
O323        O  0.73479169  0.29832045  0.32716683    -0.73500
O324        O  0.88582107  0.27005726  0.31151947    -0.74100
O325        O  0.95354897  0.45932438  0.32375669    -0.73500
O326        O  0.94876696  0.32409856  0.35152163    -0.74200
O327        O  0.90922737  0.39635328  0.30894406    -0.73600
O328        O  0.98272832  0.41538893  0.34868579    -0.74100
O329        O  0.88721793  0.44827606  0.34906206    -0.74000
O330        O  0.79511155  0.38355208  0.35022984    -0.73800
C331        C  0.76879915  0.21821942  0.35581278     0.78000
C332        C  0.89955419  0.24077555  0.31746419     0.78500
C333        C  0.73560120  0.28845226  0.31591071     0.77500
C334        C  0.94393166  0.44677101  0.31256928     0.77800
C335        C  0.98616777  0.37605147  0.35332731     0.79000
C336        C  0.83750325  0.43259879  0.35276193     0.78000
C337        C  0.07945002  0.67560149  0.27866480     0.19600
C338        C  0.06897481  0.62128414  0.27626903    -0.18500
C339        C  0.04437727  0.57938347  0.28501485    -0.10800
C340        C  0.02883686  0.59046910  0.29641673     0.21800
C341        C  0.03960499  0.64484009  0.29890269    -0.20100
C342        C  0.06452353  0.68703570  0.29013590    -0.11000
C343        C  0.00240958  0.54661556  0.30592723    -0.15100
C344        C  0.97262596  0.49080323  0.30332162    -0.29000
C345        C  0.10883019  0.71886909  0.26908913    -0.03300
C346        C  0.12273236  0.77306391  0.26991299    -0.39800
H347        H  0.08076433  0.61134005  0.26762025     0.13000
H348        H  0.03887251  0.53881828  0.28284221     0.12600
H349        H  0.02853833  0.65465315  0.30764985     0.12000
H350        H  0.07235737  0.72830274  0.29251750     0.12300
H351        H  0.00521056  0.56061805  0.31525748     0.15000
H352        H  0.96604082  0.47625253  0.29400370     0.13800
H353        H  0.12046604  0.70503137  0.26092225     0.11500
H354        H  0.10813611  0.78715584  0.27753287     0.13500
C355        C  0.30251168  0.78458136  0.22645429     0.19600
C356        C  0.27890633  0.73472080  0.21944343    -0.18500
C357        C  0.31341227  0.72061765  0.21299896    -0.10800
C358        C  0.37272617  0.75591503  0.21347071     0.21800
C359        C  0.39654937  0.80523120  0.22069567    -0.20100
C360        C  0.36186271  0.81976061  0.22706038    -0.11000
C361        C  0.41013449  0.74142324  0.20664418    -0.15100
C362        C  0.39537195  0.71462111  0.19584665    -0.29000
C363        C  0.26350130  0.79551301  0.23365870    -0.03300
C364        C  0.27611860  0.84679866  0.23780326    -0.39800
H365        H  0.23338667  0.70628183  0.21899073     0.13000
H366        H  0.29344653  0.68136989  0.20784699     0.12600
H367        H  0.44209113  0.83275585  0.22134493     0.12000
H368        H  0.38157338  0.85764237  0.23265632     0.12300
H369        H  0.45159613  0.75572172  0.21021439     0.15000
H370        H  0.35607880  0.70486902  0.19182307     0.13800
H371        H  0.22119796  0.75909047  0.23533403     0.11500
H372        H  0.31597735  0.88456964  0.23524422     0.13500
C373        C  0.41878392  0.34997874  0.22772051     0.19600
C374        C  0.45890209  0.36949451  0.21827610    -0.18500
C375        C  0.47045873  0.41591550  0.21148649    -0.10800
C376        C  0.44233986  0.44436182  0.21403362     0.21800
C377        C  0.40294186  0.42570580  0.22365195    -0.20100
C378        C  0.39081714  0.37855245  0.23039664    -0.11000
C379        C  0.45509154  0.49443033  0.20694873    -0.15100
C380        C  0.46911252  0.49866805  0.19514597    -0.29000
C381        C  0.41035565  0.30192289  0.23491295    -0.03300
C382        C  0.36229199  0.26551102  0.24094792    -0.39800
H383        H  0.48163594  0.34878675  0.21615402     0.13000
H384        H  0.50246649  0.43021681  0.20441463     0.12600
H385        H  0.38136477  0.44746100  0.22589708     0.12000
H386        H  0.36074582  0.36549282  0.23784045     0.12300
H387        H  0.45133186  0.52737305  0.21139768     0.15000
H388        H  0.46830923  0.46359201  0.19050213     0.13800
H389        H  0.44453131  0.29420468  0.23457862     0.11500
H390        H  0.32551820  0.26890850  0.24034896     0.13500
C391        C  0.62872102  0.24944628  0.29042528     0.19600
C392        C  0.60340131  0.20655202  0.28157112    -0.18500
C393        C  0.55683062  0.19804598  0.27513286    -0.10800
C394        C  0.53539959  0.23305887  0.27733333     0.21800
C395        C  0.56205627  0.27702534  0.28590906    -0.20100
C396        C  0.60793154  0.28501970  0.29241825    -0.11000
C397        C  0.48711702  0.22714779  0.27060585    -0.15100
C398        C  0.44644988  0.17870468  0.26531239    -0.29000
C399        C  0.67780639  0.25791923  0.29726886    -0.03300
C400        C  0.68542631  0.27475531  0.30891969    -0.39800
H401        H  0.61933359  0.17927659  0.27972718     0.13000
H402        H  0.53853660  0.16484797  0.26831851     0.12600
H403        H  0.54715867  0.30526672  0.28762555     0.12000
H404        H  0.62771221  0.31975973  0.29887507     0.12300
H405        H  0.48335016  0.26381384  0.27067199     0.15000
H406        H  0.44673381  0.14032305  0.26622762     0.13800
H407        H  0.70734726  0.24921054  0.29274352     0.11500
H408        H  0.65356183  0.27948465  0.31361007     0.13500
C409        C  0.76835442  0.82895499  0.20789780     0.19600
C410        C  0.78756861  0.80640429  0.21630332    -0.18500
C411        C  0.83857902  0.84139255  0.22234198    -0.10800
C412        C  0.87108323  0.89990872  0.22014868     0.21800
C413        C  0.85172885  0.92232278  0.21174699    -0.20100
C414        C  0.80109378  0.88738880  0.20566892    -0.11000
C415        C  0.92194647  0.93995374  0.22725027    -0.15100
C416        C  0.95267075  0.92559702  0.23367541    -0.29000
C417        C  0.71302981  0.79115274  0.20197063    -0.03300
C418        C  0.70194748  0.80112336  0.19090148    -0.39800
H419        H  0.76279240  0.76161955  0.21826757     0.13000
H420        H  0.85119154  0.82274358  0.22899504     0.12600
H421        H  0.87537488  0.96737675  0.21004687     0.12000
H422        H  0.78688663  0.90665176  0.19953737     0.12300
H423        H  0.93448402  0.98405996  0.22725051     0.15000
H424        H  0.94493562  0.88325832  0.23293690     0.13800
H425        H  0.68159819  0.75283229  0.20659754     0.11500
H426        H  0.73478108  0.83674011  0.18578768     0.13500
C427        C  0.96593029  0.18960386  0.29319742     0.19600
C428        C  0.97597326  0.19734961  0.28070220    -0.18500
C429        C  0.00121313  0.17264616  0.27424399    -0.10800
C430        C  0.01681233  0.13902720  0.28012450     0.21800
C431        C  0.00894466  0.13305378  0.29267771    -0.20100
C432        C  0.98372365  0.15783505  0.29915930    -0.11000
C433        C  0.03905016  0.10782055  0.27339603    -0.15100
C434        C  0.02381874  0.08921347  0.26197914    -0.29000
C435        C  0.93858954  0.21699709  0.29955686    -0.03300
C436        C  0.92121522  0.20850029  0.31120218    -0.39800
H437        H  0.96395252  0.22246585  0.27587353     0.13000
H438        H  0.00843645  0.18009863  0.26464472     0.12600
H439        H  0.02116400  0.10798862  0.29746166     0.12000
H440        H  0.97865554  0.15181227  0.30879965     0.12300
H441        H  0.06252428  0.09405072  0.27834950     0.15000
H442        H  0.99559184  0.09831953  0.25748233     0.13800
H443        H  0.93331894  0.24640637  0.29441056     0.11500
H444        H  0.92554968  0.17946994  0.31665029     0.13500
C445        C  0.64698015  0.01042213  0.39568821     0.19600
C446        C  0.62154104  0.03234054  0.38888313    -0.18500
C447        C  0.65284085  0.07391168  0.38026958    -0.10800
C448        C  0.71087007  0.09529238  0.37841285     0.21800
C449        C  0.73633683  0.07347548  0.38527185    -0.20100
C450        C  0.70494511  0.03173996  0.39386116    -0.11000
C451        C  0.74623042  0.13954991  0.36936610    -0.15100
C452        C  0.73146146  0.17323906  0.36439457    -0.29000
C453        C  0.61171820  0.96597575  0.40465828    -0.03300
C454        C  0.62372177  0.92820141  0.40846010    -0.39800
H455        H  0.57694701  0.01659509  0.39010770     0.13000
H456        H  0.63089738  0.08818521  0.37501533     0.12600
H457        H  0.78092372  0.08918272  0.38406037     0.12000
H458        H  0.72651016  0.01707300  0.39914827     0.12300
H459        H  0.78724303  0.14595617  0.36701441     0.15000
H460        H  0.69199296  0.16967932  0.36692070     0.13800
H461        H  0.57225236  0.96179686  0.40754995     0.11500
H462        H  0.66008292  0.92852029  0.40468585     0.13500
C463        C  0.36537566  0.91972624  0.46616781     0.19600
C464        C  0.39687861  0.89743981  0.47009359    -0.18500
C465        C  0.42518914  0.88213795  0.46176561    -0.10800
C466        C  0.42213628  0.88855160  0.44930399     0.21800
C467        C  0.38939891  0.90927570  0.44538383    -0.20100
C468        C  0.36083208  0.92404592  0.45365790    -0.11000
C469        C  0.45550169  0.87840326  0.44012641    -0.15100
C470        C  0.47568723  0.84479665  0.44171660    -0.29000
C471        C  0.33728781  0.93731671  0.47528442    -0.03300
C472        C  0.32054516  0.97289338  0.47269703    -0.39800
H473        H  0.40065395  0.89306085  0.47964440     0.13000
H474        H  0.45081072  0.86719103  0.46515061     0.12600
H475        H  0.38604815  0.91429641  0.43584028     0.12000
H476        H  0.33506529  0.93841803  0.45010713     0.12300
H477        H  0.46291250  0.89909505  0.43150755     0.15000
H478        H  0.46411013  0.81927331  0.44975354     0.13800
H479        H  0.33058184  0.92090275  0.48436542     0.11500
H480        H  0.32848725  0.99114959  0.46380410     0.13500
C481        C  0.11740014  0.45183424  0.37365783     0.19600
C482        C  0.16950139  0.50381890  0.37372866    -0.18500
C483        C  0.21151846  0.51421878  0.38192830    -0.10800
C484        C  0.20183038  0.47268759  0.39030508     0.21800
C485        C  0.14915741  0.42141421  0.39039031    -0.20100
C486        C  0.10742987  0.41110396  0.38223796    -0.11000
C487        C  0.24427187  0.48020181  0.39923608    -0.15100
C488        C  0.29982159  0.52075778  0.39879462    -0.29000
C489        C  0.07336877  0.44154555  0.36487261    -0.03300
C490        C  0.03347672  0.38902090  0.36119036    -0.39800
H491        H  0.17784951  0.53629826  0.36736505     0.13000
H492        H  0.25085543  0.55491939  0.38170699     0.12600
H493        H  0.14011985  0.38892545  0.39681840     0.12000
H494        H  0.06706104  0.37146153  0.38287875     0.12300
H495        H  0.22858399  0.44938028  0.40639045     0.15000
H496        H  0.31605624  0.55296543  0.39193639     0.13800
H497        H  0.07402872  0.47778239  0.36132442     0.11500
H498        H  0.03444532  0.35295001  0.36422019     0.13500
C499        C  0.28668755  0.25622806  0.45506707     0.19600
C500        C  0.31788213  0.26762353  0.44423968    -0.18500
C501        C  0.32799576  0.31245148  0.43698205    -0.10800
C502        C  0.30586908  0.34577648  0.44032249     0.21800
C503        C  0.27326748  0.33331771  0.45094842    -0.20100
C504        C  0.26415134  0.28931395  0.45832502    -0.11000
C505        C  0.31483217  0.39282685  0.43275750    -0.15100
C506        C  0.36423828  0.42776186  0.42704374    -0.29000
C507        C  0.27570147  0.20786479  0.46248792    -0.03300
C508        C  0.27046982  0.20786444  0.47459333    -0.39800
H509        H  0.33476554  0.24203814  0.44144811     0.13000
H510        H  0.35214693  0.32034970  0.42866312     0.12600
H511        H  0.25524654  0.35805398  0.45359778     0.12000
H512        H  0.23837619  0.28044818  0.46641888     0.12300
H513        H  0.28158414  0.40190733  0.43271754     0.15000
H514        H  0.39977149  0.42269949  0.42816804     0.13800
H515        H  0.27294185  0.17175561  0.45786291     0.11500
H516        H  0.27699220  0.24528926  0.47934177     0.13500
C517        C  0.77171516  0.50138703  0.37213246     0.19600
C518        C  0.72175400  0.47996876  0.37906724    -0.18500
C519        C  0.71368253  0.51543702  0.38684189    -0.10800
C520        C  0.75535725  0.57361461  0.38773671     0.21800
C521        C  0.80470714  0.59518337  0.38060109    -0.20100
C522        C  0.81273787  0.55979082  0.37283452    -0.11000
C523        C  0.75046285  0.61297060  0.39625785    -0.15100
C524        C  0.70151699  0.60223053  0.40141687    -0.29000
C525        C  0.77933564  0.46160245  0.36432075    -0.03300
C526        C  0.83013444  0.47299613  0.36019085    -0.39800
H527        H  0.68926828  0.43526356  0.37866939     0.13000
H528        H  0.67546008  0.49662421  0.39230993     0.12600
H529        H  0.83738834  0.63982639  0.38103307     0.12000
H530        H  0.85098381  0.57873009  0.36737484     0.12300
H531        H  0.78892431  0.65372582  0.39795336     0.15000
H532        H  0.66196936  0.56400248  0.39895491     0.13800
H533        H  0.74186642  0.42042848  0.36229337     0.11500
H534        H  0.86840798  0.51281792  0.36248774     0.13500
C535        C  0.94438930  0.85295525  0.46474699     0.19600
C536        C  0.89245346  0.84935953  0.46456840    -0.18500
C537        C  0.85267208  0.81667824  0.45571013    -0.10800
C538        C  0.86406496  0.78642350  0.44696630     0.21800
C539        C  0.91529083  0.78874346  0.44741499    -0.20100
C540        C  0.95516002  0.82178799  0.45616307    -0.11000
C541        C  0.82238426  0.74944068  0.43770455    -0.15100
C542        C  0.78372181  0.75882563  0.43333469    -0.29000
C543        C  0.98675767  0.88857106  0.47400521    -0.03300
C544        C  0.04233030  0.91723737  0.47133352    -0.39800
H545        H  0.88292296  0.87230362  0.47121770     0.13000
H546        H  0.81272026  0.81421214  0.45592460     0.12600
H547        H  0.92457002  0.76497378  0.44094030     0.12000
H548        H  0.99406487  0.82218930  0.45631045     0.12300
H549        H  0.82386374  0.71325816  0.43450803     0.15000
H550        H  0.78299998  0.79543212  0.43656792     0.13800
H551        H  0.97216247  0.89255111  0.48294500     0.11500
H552        H  0.05617882  0.91628728  0.46212315     0.13500
C553        C  0.67734980  0.94582292  0.62455434     0.19600
C554        C  0.68123186  0.99783931  0.62586498    -0.18500
C555        C  0.71255066  0.04107641  0.61751182    -0.10800
C556        C  0.73987581  0.03252497  0.60760164     0.21800
C557        C  0.73352116  0.97948268  0.60603620    -0.20100
C558        C  0.70279959  0.93669907  0.61440273    -0.11000
C559        C  0.77569120  0.07703982  0.59866405    -0.15100
C560        C  0.80023448  0.13309305  0.60070092    -0.29000
C561        C  0.64674738  0.90139056  0.63379948    -0.03300
C562        C  0.66475621  0.86728245  0.63675984    -0.39800
H563        H  0.66109978  0.00542966  0.63349743     0.13000
H564        H  0.71489994  0.08072794  0.61884777     0.12600
H565        H  0.75329170  0.97137143  0.59840619     0.12000
H566        H  0.69888955  0.89633504  0.61287958     0.12300
H567        H  0.78443431  0.06268640  0.59019271     0.15000
H568        H  0.79105357  0.14844747  0.60895475     0.13800
H569        H  0.61060297  0.89812937  0.63851111     0.11500
H570        H  0.70335607  0.87365114  0.63263182     0.13500
C571        C  0.96364713  0.12553668  0.55562738     0.19600
C572        C  0.02259108  0.16044993  0.55391859    -0.18500
C573        C  0.05157305  0.14259229  0.54650268    -0.10800
C574        C  0.02223004  0.08937922  0.54057491     0.21800
C575        C  0.96355120  0.05445268  0.54244669    -0.20100
C576        C  0.93466819  0.07223693  0.54987635    -0.11000
C577        C  0.05074063  0.06797705  0.53258115    -0.15100
C578        C  0.10428041  0.10040214  0.52843269    -0.29000
C579        C  0.93097613  0.14122995  0.56379890    -0.03300
C580        C  0.94973089  0.19412928  0.56795948    -0.39800
H581        H  0.04691679  0.20098105  0.55850036     0.13000
H582        H  0.09694752  0.17043497  0.54572151     0.12600
H583        H  0.93980057  0.01309029  0.53812653     0.12000
H584        H  0.88939006  0.04409952  0.55114559     0.12300
H585        H  0.02605711  0.02370074  0.52977848     0.15000
H586        H  0.12973128  0.14500579  0.53078531     0.13800
H587        H  0.88842660  0.10726855  0.56623268     0.11500
H588        H  0.98978864  0.22961749  0.56474345     0.13500
C589        C  0.31185755  0.61395439  0.62928823     0.19600
C590        C  0.26324702  0.61517607  0.63203122    -0.18500
C591        C  0.22082822  0.59751018  0.62346433    -0.10800
C592        C  0.22706243  0.57972175  0.61187451     0.21800
C593        C  0.27581156  0.57878838  0.60910805    -0.20100
C594        C  0.31752106  0.59502830  0.61777457    -0.11000
C595        C  0.18619178  0.56757084  0.60220864    -0.15100
C596        C  0.13003625  0.54126851  0.60422882    -0.29000
C597        C  0.35795686  0.63649445  0.63821623    -0.03300
C598        C  0.38929932  0.61371540  0.63962121    -0.39800
H599        H  0.25835754  0.63027668  0.64078235     0.13000
H600        H  0.18432724  0.60005728  0.62573996     0.12600
H601        H  0.28188990  0.56609869  0.60017792     0.12000
H602        H  0.35521213  0.59492907  0.61530239     0.12300
H603        H  0.20289413  0.58042364  0.59310073     0.15000
H604        H  0.11231253  0.52327711  0.61301306     0.13800
H605        H  0.36551150  0.67197552  0.64391460     0.11500
H606        H  0.37889723  0.57553894  0.63460796     0.13500
C607        C  0.12801438  0.77823693  0.53885152     0.19600
C608        C  0.16437163  0.77020075  0.54579663    -0.18500
C609        C  0.14320835  0.72246924  0.55302501    -0.10800
C610        C  0.08477235  0.68126604  0.55350887     0.21800
C611        C  0.04849046  0.68845451  0.54632403    -0.20100
C612        C  0.06967326  0.73637461  0.53910183    -0.11000
C613        C  0.06091831  0.62943537  0.56099549    -0.15100
C614        C  0.08612498  0.62809052  0.57108605    -0.29000
C615        C  0.15309373  0.82977069  0.53122484    -0.03300
C616        C  0.12331137  0.85052134  0.52686328    -0.39800
H617        H  0.20954302  0.80106727  0.54562885     0.13000
H618        H  0.17308089  0.71758211  0.55799435     0.12600
H619        H  0.00349178  0.65690269  0.54632357     0.12000
H620        H  0.04024040  0.73966333  0.53359518     0.12300
H621        H  0.02165642  0.59211842  0.55807617     0.15000
H622        H  0.12427591  0.66675749  0.57400149     0.13800
H623        H  0.19844029  0.85258110  0.52944714     0.11500
H624        H  0.07845841  0.82993043  0.52893325     0.13500
C625        C  0.65348282  0.45320416  0.60986650     0.19600
C626        C  0.68639618  0.51265514  0.61070035    -0.18500
C627        C  0.67143068  0.54166467  0.61888722    -0.10800
C628        C  0.62324330  0.51183777  0.62645589     0.21800
C629        C  0.59030192  0.45259009  0.62550029    -0.20100
C630        C  0.60518190  0.42367651  0.61731324    -0.11000
C631        C  0.60417001  0.54058311  0.63501389    -0.15100
C632        C  0.63734260  0.59471362  0.63878028    -0.29000
C633        C  0.66624095  0.42033038  0.60104815    -0.03300
C634        C  0.71747190  0.43966825  0.59584948    -0.39800
H635        H  0.72281708  0.53713966  0.60483894     0.13000
H636        H  0.69696732  0.58735945  0.61896006     0.12600
H637        H  0.55267989  0.42847449  0.63109653     0.12000
H638        H  0.57871504  0.37793263  0.61678950     0.12300
H639        H  0.56082608  0.51579810  0.63842216     0.15000
H640        H  0.68129593  0.61995006  0.63587072     0.13800
H641        H  0.63229029  0.37693110  0.59925923     0.11500
H642        H  0.75334443  0.48082778  0.59842838     0.13500
C643        C  0.56885438  0.24936075  0.55097115     0.19600
C644        C  0.54707225  0.26950301  0.54264034    -0.18500
C645        C  0.50109614  0.23209036  0.53552106    -0.10800
C646        C  0.47462039  0.17318914  0.53676435     0.21800
C647        C  0.49783255  0.15282426  0.54472109    -0.20100
C648        C  0.54443082  0.19051600  0.55182462    -0.11000
C649        C  0.42250899  0.13278047  0.52997036    -0.15100
C650        C  0.38576259  0.14703440  0.52669286    -0.29000
C651        C  0.61434761  0.29129092  0.55905749    -0.03300
C652        C  0.65112940  0.28266833  0.56468726    -0.39800
H653        H  0.56546626  0.31456821  0.54169752     0.13000
H654        H  0.48636941  0.24968910  0.52908331     0.12600
H655        H  0.47869253  0.10769252  0.54574131     0.12000
H656        H  0.55969581  0.17339390  0.55825207     0.12300
H657        H  0.41347732  0.09051867  0.52795312     0.15000
H658        H  0.39334002  0.18818856  0.52929397     0.13800
H659        H  0.61899593  0.33232309  0.56003700     0.11500
H660        H  0.65085730  0.24418098  0.56288743     0.13500
C661        C  0.38812705  0.43467053  0.70169223     0.19600
C662        C  0.36385015  0.37728648  0.69863573    -0.18500
C663        C  0.33068060  0.33511650  0.70706119    -0.10800
C664        C  0.32091686  0.34970793  0.71872059     0.21800
C665        C  0.34368313  0.40699182  0.72160037    -0.20100
C666        C  0.37684227  0.44898208  0.71321851    -0.11000
C667        C  0.28561775  0.30698600  0.72802101    -0.15100
C668        C  0.27425225  0.25364593  0.72793963    -0.29000
C669        C  0.42286186  0.47863058  0.69256436    -0.03300
C670        C  0.46342094  0.53186020  0.69569267    -0.39800
H671        H  0.37078800  0.36509734  0.68972894     0.13000
H672        H  0.31214008  0.29135820  0.70430772     0.12600
H673        H  0.33581878  0.41939426  0.73039579     0.12000
H674        H  0.39255995  0.49252149  0.71575457     0.12300
H675        H  0.27084472  0.32147206  0.73554593     0.15000
H676        H  0.29329750  0.24067439  0.72101877     0.13800
H677        H  0.41491575  0.46685763  0.68308054     0.11500
H678        H  0.47347943  0.54316986  0.70512954     0.13500
C679        C  0.09725879  0.23900376  0.77336629     0.19600
C680        C  0.12036035  0.29005845  0.77990360    -0.18500
C681        C  0.08697027  0.29935091  0.78801017    -0.10800
C682        C  0.02905646  0.25795307  0.78960525     0.21800
C683        C  0.00589532  0.20690256  0.78301494    -0.20100
C684        C  0.03946063  0.19749585  0.77494208    -0.11000
C685        C  0.99172586  0.26564891  0.79819285    -0.15100
C686        C  0.00492281  0.31613642  0.80288213    -0.29000
C687        C  0.13470782  0.23157550  0.76483073    -0.03300
C688        C  0.12519031  0.18081645  0.76124700    -0.39800
H689        H  0.16475943  0.32270116  0.77885987     0.13000
H690        H  0.10731667  0.33867190  0.79309482     0.12600
H691        H  0.96148691  0.17428301  0.78404584     0.12000
H692        H  0.01972969  0.15816319  0.76983703     0.12300
H693        H  0.95110908  0.22821898  0.80055612     0.15000
H694        H  0.04403887  0.35458044  0.80034553     0.13800
H695        H  0.17361746  0.26975804  0.76199485     0.11500
H696        H  0.08941244  0.14240663  0.76498163     0.13500
C697        C  0.62225138  0.19689045  0.79301568     0.19600
C698        C  0.59809342  0.22235612  0.78697445    -0.18500
C699        C  0.55750443  0.19255196  0.77806675    -0.10800
C700        C  0.53977929  0.13619641  0.77512215     0.21800
C701        C  0.56327061  0.11055506  0.78130878    -0.20100
C702        C  0.60354392  0.14017350  0.79021649    -0.11000
C703        C  0.49781634  0.10255037  0.76559488    -0.15100
C704        C  0.46026962  0.11408126  0.76142043    -0.29000
C705        C  0.66697271  0.23075086  0.80207099    -0.03300
C706        C  0.70500006  0.21806526  0.80530082    -0.39800
H707        H  0.61152973  0.26588612  0.78898012     0.13000
H708        H  0.54125439  0.21428497  0.77338006     0.12600
H709        H  0.55009433  0.06709273  0.77929836     0.12000
H710        H  0.61927517  0.11802540  0.79491891     0.12300
H711        H  0.49529201  0.06411783  0.76249340     0.15000
H712        H  0.45857674  0.14927910  0.76522712     0.13800
H713        H  0.67062401  0.26903847  0.80569168     0.11500
H714        H  0.70402689  0.18176440  0.80131228     0.13500
C715        C  0.46655291  0.86467865  0.70180023     0.19600
C716        C  0.42886080  0.88111873  0.69882503    -0.18500
C717        C  0.41483995  0.91025593  0.70722753    -0.10800
C718        C  0.43848438  0.92368445  0.71883585     0.21800
C719        C  0.47674112  0.90791637  0.72170469    -0.20100
C720        C  0.49087582  0.87916441  0.71332860    -0.11000
C721        C  0.42729523  0.95627558  0.72810223    -0.15100
C722        C  0.38669926  0.96831251  0.72745586    -0.29000
C723        C  0.48121147  0.83439215  0.69260384    -0.03300
C724        C  0.50250367  0.80303859  0.69557149    -0.39800
H725        H  0.41020747  0.87141128  0.68995749     0.13000
H726        H  0.38633832  0.92276293  0.70446261     0.12600
H727        H  0.49645901  0.91847592  0.73047069     0.12000
H728        H  0.52195957  0.86974788  0.71590961     0.12300
H729        H  0.45354806  0.96992201  0.73604321     0.15000
H730        H  0.35698152  0.95113547  0.72010032     0.13800
H731        H  0.47359570  0.83740232  0.68316674     0.11500
H732        H  0.50779272  0.79742322  0.70498271     0.13500
C733        C  0.99677110  0.69583883  0.78204829     0.19600
C734        C  0.94763827  0.66804286  0.78931642    -0.18500
C735        C  0.93657636  0.62317823  0.79664508    -0.10800
C736        C  0.97424991  0.60436397  0.79678104     0.21800
C737        C  0.02398002  0.63282718  0.78968799    -0.20100
C738        C  0.03510417  0.67786238  0.78234753    -0.11000
C739        C  0.96366026  0.55582010  0.80422364    -0.15100
C740        C  0.91240559  0.51650603  0.80875614    -0.29000
C741        C  0.00424312  0.74112285  0.77393996    -0.03300
C742        C  0.05274886  0.77844261  0.76808853    -0.39800
H743        H  0.91743084  0.68102860  0.78931319     0.13000
H744        H  0.89866734  0.60396501  0.80222400     0.12600
H745        H  0.05390801  0.61948850  0.78965382     0.12000
H746        H  0.07300623  0.69730889  0.77676066     0.12300
H747        H  0.99926706  0.55119849  0.80566250     0.15000
H748        H  0.87557511  0.51855753  0.80704969     0.13800
H749        H  0.96762960  0.74451270  0.77298989     0.11500
H750        H  0.09135536  0.77949905  0.76972953     0.13500
C751        C  0.81019428  0.81414910  0.70897651     0.19600
C752        C  0.80521041  0.80064548  0.72124227    -0.18500
C753        C  0.85322065  0.81793945  0.72809295    -0.10800
C754        C  0.90762693  0.84913164  0.72278929     0.21800
C755        C  0.91281931  0.86494302  0.71067653    -0.20100
C756        C  0.86475500  0.84770600  0.70381696    -0.11000
C757        C  0.95972137  0.86616498  0.72959067    -0.15100
C758        C  0.95976306  0.83806983  0.73930123    -0.29000
C759        C  0.75741532  0.79229436  0.70201256    -0.03300
C760        C  0.75522674  0.78923265  0.68987530    -0.39800
H761        H  0.76383893  0.77590015  0.72552904     0.13000
H762        H  0.84731680  0.80698128  0.73753209     0.12600
H763        H  0.95427280  0.89003263  0.70643749     0.12000
H764        H  0.87087657  0.86106244  0.69454397     0.12300
H765        H  0.99948109  0.90045428  0.72591851     0.15000
H766        H  0.92040543  0.80065582  0.74221790     0.13800
H767        H  0.71806895  0.77534268  0.70715178     0.11500
H768        H  0.79337292  0.80405781  0.68446548     0.13500
C769        C  0.20295891  0.56423662  0.89231663     0.19600
C770        C  0.18212382  0.58738637  0.88449050    -0.18500
C771        C  0.13659173  0.55237635  0.87698187    -0.10800
C772        C  0.11041903  0.49325037  0.87728225     0.21800
C773        C  0.13061087  0.46997376  0.88523923    -0.20100
C774        C  0.17672890  0.50506163  0.89263301    -0.11000
C775        C  0.06019634  0.45501101  0.86987313    -0.15100
C776        C  0.05314183  0.46891579  0.85883005    -0.29000
C777        C  0.25006111  0.60284272  0.90044051    -0.03300
C778        C  0.28725213  0.59093888  0.90464458    -0.39800
H779        H  0.20108429  0.63277673  0.88421020     0.13000
H780        H  0.12097308  0.57158635  0.87120709     0.12600
H781        H  0.11056709  0.42449265  0.88574134     0.12000
H782        H  0.19062659  0.48567882  0.89880574     0.12300
H783        H  0.02907906  0.41363659  0.87345726     0.15000
H784        H  0.08617702  0.50830514  0.85480291     0.13800
H785        H  0.25598153  0.64384954  0.90252125     0.11500
H786        H  0.28518646  0.55266391  0.90159225     0.13500
C787        C  0.32031861  0.78733202  0.94656721     0.19600
C788        C  0.28283838  0.80425185  0.94379888    -0.18500
C789        C  0.26803207  0.83171338  0.95238384    -0.10800
C790        C  0.29082535  0.84375494  0.96405158     0.21800
C791        C  0.32818160  0.82664155  0.96689128    -0.20100
C792        C  0.34290121  0.79878985  0.95826618    -0.11000
C793        C  0.27465412  0.87191687  0.97351634    -0.15100
C794        C  0.25362883  0.90386930  0.97080646    -0.29000
C795        C  0.33126332  0.75520324  0.93710367    -0.03300
C796        C  0.36991752  0.74045778  0.93772914    -0.39800
H797        H  0.26399808  0.79533635  0.93496118     0.13000
H798        H  0.23740357  0.84184841  0.94985174     0.12600
H799        H  0.34584932  0.83462893  0.97583286     0.12000
H800        H  0.37098717  0.78556424  0.96092840     0.12300
H801        H  0.28110775  0.86701466  0.98291168     0.15000
H802        H  0.25017364  0.91185475  0.96145412     0.13800
H803        H  0.30591285  0.74359568  0.92905328     0.11500
H804        H  0.39892200  0.75540468  0.94520637     0.13500
C805        C  0.69984487  0.41903001  0.87126730     0.19600
C806        C  0.68372519  0.45692173  0.86825762    -0.18500
C807        C  0.65529432  0.47167948  0.87666486    -0.10800
C808        C  0.64222729  0.44860279  0.88832182     0.21800
C809        C  0.65777941  0.41017578  0.89124986    -0.20100
C810        C  0.68607811  0.39542576  0.88285917    -0.11000
C811        C  0.60962167  0.46022079  0.89749780    -0.15100
C812        C  0.59839828  0.50143394  0.89677664    -0.29000
C813        C  0.72922457  0.40382241  0.86199018    -0.03300
C814        C  0.76152977  0.38326544  0.86471487    -0.39800
H815        H  0.69308803  0.47513881  0.85934301     0.13000
H816        H  0.64283471  0.50016068  0.87385186     0.12600
H817        H  0.64741137  0.39086430  0.90006152     0.12000
H818        H  0.69577494  0.36453262  0.88544913     0.12300
H819        H  0.59474108  0.43336089  0.90535764     0.15000
H820        H  0.61707007  0.53181923  0.88954757     0.13800
H821        H  0.72589723  0.41194137  0.85260941     0.11500
H822        H  0.76827465  0.37807219  0.87405788     0.13500
C823        C  0.41439927  0.33583009  0.94081005     0.19600
C824        C  0.43718139  0.31436118  0.94857007    -0.18500
C825        C  0.40189842  0.26801548  0.95586152    -0.10800
C826        C  0.34279789  0.24156851  0.95543975     0.21800
C827        C  0.31977962  0.26216326  0.94749721    -0.20100
C828        C  0.35521602  0.30921757  0.94030972    -0.11000
C829        C  0.30461780  0.19116960  0.96285355    -0.15100
C830        C  0.31835209  0.18499685  0.97400498    -0.29000
C831        C  0.45379975  0.38373360  0.93291214    -0.03300
C832        C  0.44248558  0.42096207  0.92842622    -0.39800
H833        H  0.48254033  0.33348407  0.94897517     0.13000
H834        H  0.42095088  0.25210496  0.96161099     0.12600
H835        H  0.27433867  0.24191956  0.94689319     0.12000
H836        H  0.33616282  0.32364383  0.93417031     0.12300
H837        H  0.26358343  0.15951291  0.95923566     0.15000
H838        H  0.35723547  0.21874250  0.97803311     0.13800
H839        H  0.49526522  0.39015913  0.93120873     0.11500
H840        H  0.40366768  0.41870971  0.93104321     0.13500
C841        C  0.79453806  0.10042773  0.87422855     0.19600
C842        C  0.75680205  0.08345584  0.88412756    -0.18500
C843        C  0.74237972  0.03500015  0.89060474    -0.10800
C844        C  0.76634749  0.00314077  0.88741433     0.21800
C845        C  0.80474644  0.02065278  0.87763733    -0.20100
C846        C  0.81842428  0.06848678  0.87104685    -0.11000
C847        C  0.75577635  0.95418047  0.89460694    -0.15100
C848        C  0.70731554  0.91999944  0.90078934    -0.29000
C849        C  0.81033832  0.15302181  0.86777300    -0.03300
C850        C  0.82422238  0.16037104  0.85594295    -0.39800
H851        H  0.73849998  0.10783597  0.88686311     0.13000
H852        H  0.71392754  0.02363763  0.89831295     0.12600
H853        H  0.82452092  0.99738792  0.87513448     0.12000
H854        H  0.84895781  0.08127302  0.86369981     0.12300
H855        H  0.78879987  0.94477403  0.89445101     0.15000
H856        H  0.67169140  0.92515680  0.90002511     0.13800
H857        H  0.80832672  0.18576189  0.87281247     0.11500
H858        H  0.82216873  0.12622498  0.85061258     0.13500
C859        C  0.95899096  0.91983738  0.95679207     0.19600
C860        C  0.94196708  0.88104860  0.94711191    -0.18500
C861        C  0.89580857  0.86898036  0.94007390    -0.10800
C862        C  0.86651640  0.89638193  0.94249751     0.21800
C863        C  0.88405447  0.93564721  0.95208144    -0.20100
C864        C  0.92954124  0.94704654  0.95921068    -0.11000
C865        C  0.81994959  0.88797428  0.93480192    -0.15100
C866        C  0.78504281  0.83958416  0.92873195    -0.29000
C867        C  0.00948284  0.93381743  0.96380373    -0.03300
C868        C  0.01444438  0.94818809  0.97558143    -0.39800
H869        H  0.96455300  0.86021928  0.94497781     0.13000
H870        H  0.88432154  0.83961436  0.93254063     0.12600
H871        H  0.86267816  0.95787270  0.95401142     0.12000
H872        H  0.94264459  0.97848268  0.96637175     0.12300
H873        H  0.81237062  0.92221571  0.93462215     0.15000
H874        H  0.78817851  0.80290260  0.92983768     0.13800
H875        H  0.04283112  0.93116348  0.95921758     0.11500
H876        H  0.97941794  0.94666997  0.98043020     0.13500
C877        C  0.62293652  0.00605445  0.11430096     0.19600
C878        C  0.56823726  0.95821977  0.11583083    -0.18500
C879        C  0.55849770  0.91391197  0.12316770    -0.10800
C880        C  0.60340598  0.91683150  0.12933485     0.21800
C881        C  0.65796666  0.96514347  0.12799883    -0.20100
C882        C  0.66773482  0.00949041  0.12063991    -0.11000
C883        C  0.59564059  0.86989972  0.13688619    -0.15100
C884        C  0.54510936  0.82864482  0.14124323    -0.29000
C885        C  0.63086338  0.05027282  0.10583932    -0.03300
C886        C  0.68134234  0.09072434  0.10127489    -0.39800
H887        H  0.53294788  0.95441419  0.11108056     0.13000
H888        H  0.51597596  0.87707943  0.12365023     0.12600
H889        H  0.69327261  0.96860510  0.13267197     0.12000
H890        H  0.71035917  0.04607493  0.12004590     0.12300
H891        H  0.63329216  0.87000265  0.13913963     0.15000
H892        H  0.50714522  0.82878391  0.13961810     0.13800
H893        H  0.59294564  0.04813340  0.10294471     0.11500
H894        H  0.72002588  0.09471237  0.10418533     0.13500
C895        C  0.42909278  0.05724309  0.04025537     0.19600
C896        C  0.47999926  0.06092833  0.03725408    -0.18500
C897        C  0.52220579  0.07888316  0.04588911    -0.10800
C898        C  0.51337599  0.09196653  0.05775080     0.21800
C899        C  0.46192323  0.08694283  0.06080364    -0.20100
C900        C  0.42041132  0.07045294  0.05210734    -0.11000
C901        C  0.55574208  0.10801356  0.06727801    -0.15100
C902        C  0.61177022  0.14138109  0.06518911    -0.29000
C903        C  0.38487986  0.03854188  0.03102453    -0.03300
C904        C  0.35653221  0.06459113  0.02991081    -0.39800
H905        H  0.48727785  0.05048536  0.02819810     0.13000
H906        H  0.56107748  0.08117908  0.04337474     0.12600
H907        H  0.45401899  0.09615278  0.06992239     0.12000
H908        H  0.38102088  0.06690809  0.05470527     0.12300
H909        H  0.54018700  0.09453168  0.07642273     0.15000
H910        H  0.62725884  0.15982053  0.05633750     0.13800
H911        H  0.37773124  0.00518957  0.02468101     0.11500
H912        H  0.36770720  0.10135673  0.03556465     0.13500
C913        C  0.74309471  0.55114195  0.11190204     0.19600
C914        C  0.76592426  0.60008531  0.11919608    -0.18500
C915        C  0.73130993  0.60913404  0.12699693    -0.10800
C916        C  0.67254248  0.56960479  0.12757756     0.21800
C917        C  0.64970959  0.52025450  0.12040382    -0.20100
C918        C  0.68439681  0.51119212  0.11257783    -0.11000
C919        C  0.63421285  0.57813576  0.13567765    -0.15100
C920        C  0.64609321  0.62966336  0.13933927    -0.29000
C921        C  0.78180696  0.54469437  0.10348798    -0.03300
C922        C  0.77023701  0.49494384  0.09862768    -0.39800
H923        H  0.81098155  0.63148108  0.11890949     0.13000
H924        H  0.75098879  0.64678320  0.13264673     0.12600
H925        H  0.60462284  0.48901724  0.12069497     0.12000
H926        H  0.66478471  0.47353788  0.10693374     0.12300
H927        H  0.59395580  0.54089295  0.13833399     0.15000
H928        H  0.68461022  0.66740074  0.13619745     0.13800
H929        H  0.82296764  0.58259198  0.10172217     0.11500
H930        H  0.73157622  0.45603379  0.10124622     0.13500
C931        C  0.96489760  0.66178889  0.05528973     0.19600
C932        C  0.96145085  0.70985668  0.05461620    -0.18500
C933        C  0.99834039  0.75475933  0.04715133    -0.10800
C934        C  0.03913947  0.75227324  0.03991525     0.21800
C935        C  0.04329802  0.70457304  0.04070707    -0.20100
C936        C  0.00640166  0.65956062  0.04825390    -0.11000
C937        C  0.07823920  0.79909663  0.03165604    -0.15100
C938        C  0.06511657  0.83488834  0.02715748    -0.29000
C939        C  0.92327390  0.61489142  0.06320189    -0.03300
C940        C  0.93076766  0.57490688  0.06761296    -0.39800
H941        H  0.93024946  0.71295157  0.05999177     0.13000
H942        H  0.99502533  0.79154965  0.04724463     0.12600
H943        H  0.07453348  0.70168416  0.03530322     0.12000
H944        H  0.00986394  0.62287046  0.04830575     0.12300
H945        H  0.11819915  0.80360066  0.02907007     0.15000
H946        H  0.02420816  0.82906460  0.02923942     0.13800
H947        H  0.88502814  0.61419766  0.06558240     0.11500
H948        H  0.96853605  0.57488021  0.06513093     0.13500
C949        C  0.16963529  0.43347517  0.11411982     0.19600
C950        C  0.19588851  0.41011224  0.12014533    -0.18500
C951        C  0.23959637  0.44272014  0.12822735    -0.10800
C952        C  0.25855676  0.49995624  0.13037912     0.21800
C953        C  0.23168324  0.52309698  0.12452714    -0.20100
C954        C  0.18800616  0.49050585  0.11642147    -0.11000
C955        C  0.30589616  0.53697649  0.13862812    -0.15100
C956        C  0.34504305  0.52600256  0.14196101    -0.29000
C957        C  0.12495103  0.39722216  0.10525612    -0.03300
C958        C  0.08927881  0.40998537  0.10049032    -0.39800
H959        H  0.18252330  0.36628344  0.11859100     0.13000
H960        H  0.25778576  0.42255439  0.13280067     0.12600
H961        H  0.24531459  0.56701414  0.12605036     0.12000
H962        H  0.16998437  0.51080886  0.11184794     0.12300
H963        H  0.31012857  0.57635439  0.14164004     0.15000
H964        H  0.34341512  0.48827654  0.13870868     0.13800
H965        H  0.12024613  0.35704261  0.10287385     0.11500
H966        H  0.08980905  0.44735141  0.10357214     0.13500
C967        C  0.08933865  0.16216571  0.03913232     0.19600
C968        C  0.04045732  0.13900954  0.04646682    -0.18500
C969        C  0.03099831  0.17367082  0.05416888    -0.10800
C970        C  0.07014846  0.23254529  0.05457292     0.21800
C971        C  0.11841845  0.25577586  0.04707687    -0.20100
C972        C  0.12774202  0.22123737  0.03935488    -0.11000
C973        C  0.06360758  0.27091593  0.06298832    -0.15100
C974        C  0.01357400  0.25896158  0.06769422    -0.29000
C975        C  0.09886113  0.12357517  0.03141241    -0.03300
C976        C  0.15039370  0.13767667  0.02726097    -0.39800
H977        H  0.01006633  0.09373389  0.04643832     0.13000
H978        H  0.99387309  0.15392723  0.05999069     0.12600
H979        H  0.14906667  0.30100888  0.04716348     0.12000
H980        H  0.16486832  0.24131446  0.03354521     0.12300
H981        H  0.10144156  0.31187092  0.06491617     0.15000
H982        H  0.97480823  0.22069932  0.06486675     0.13800
H983        H  0.06264580  0.08143644  0.02948276     0.11500
H984        H  0.18744868  0.17856891  0.02952209     0.13500
loop_ 
_geom_bond_atom_site_label_1 
_geom_bond_atom_site_label_2 
_geom_bond_distance 
_geom_bond_site_symmetry_2 
_ccdc_geom_bond_type 
C1            C2   1.407       .  A
C1            C6   1.400   1_455  A
C1          C974   1.485       .  S
C2            C3   1.409       .  A
C2            H7   1.080       .  S
C3            C4   1.404   1_455  A
C3          C958   1.486       .  S
C4            C5   1.402       .  A
C4            H8   1.084       .  S
C5            C6   1.402       .  A
C5           C32   1.471       .  S
C6            H9   1.085       .  S
C10          C11   1.404       .  A
C10          C15   1.410       .  A
C10         C922   1.491       .  S
C11          C12   1.404       .  A
C11          H16   1.084       .  S
C12          C13   1.403       .  A
C12          C28   1.475       .  S
C13          C14   1.402       .  A
C13          H17   1.084       .  S
C14          C15   1.410       .  A
C14         C940   1.490       .  S
C15          H18   1.079       .  S
C19          C20   1.407       .  A
C19          C24   1.400       .  A
C19         C886   1.482       .  S
C20          C21   1.407       .  A
C20          H25   1.082       .  S
C21          C22   1.403       .  A
C21         C902   1.482       .  S
C22          C23   1.402       .  A
C22          H26   1.084       .  S
C23          C24   1.401       .  A
C23          C30   1.468       .  S
C24          H27   1.085       .  S
C28          N29   1.361       .  A
C28          N33   1.361       .  A
N29          C30   1.359       .  A
C30          N31   1.355       .  A
N31          C32   1.355       .  A
C32          N33   1.358       .  A
C34          C35   1.405       .  A
C34          C39   1.405       .  A
C34         C848   1.487       .  S
C35          C36   1.405       .  A
C35          H40   1.083       .  S
C36          C37   1.401       .  A
C36         C866   1.483       .  S
C37          C38   1.405       .  A
C37          H41   1.084       .  S
C38          C39   1.408       .  A
C38          C54   1.477       .  S
C39          H42   1.084       .  S
C43          C44   1.407       .  A
C43          C48   1.408       .  A
C43         C812   1.493       .  S
C44          C45   1.408       .  A
C44          H49   1.084       .  S
C45          C46   1.406       .  A
C45          C52   1.481       .  S
C46          C47   1.402       .  A
C46          H50   1.084       .  S
C47          C48   1.405       .  A
C47         C832   1.487       .  S
C48          H51   1.081       .  S
C52          N53   1.360       .  A
C52          N57   1.358       .  A
N53          C54   1.362       .  A
C54          N55   1.361       .  A
N55          C56   1.359       .  A
C56          C60   1.476       .  S
C56          N57   1.359       .  A
C58          C59   1.408       .  A
C58          C63   1.411       .  A
C58         C796   1.495       .  S
C59          C60   1.407       .  A
C59          H64   1.084       .  S
C60          C61   1.402       .  A
C61          C62   1.399       .  A
C61          H65   1.085       .  S
C62          C63   1.406       .  A
C62         C778   1.484       .  S
C63          H66   1.081       .  S
Zn67         O71   1.956   1_556  S
Zn67         O72   2.008   1_545  S
Zn67         O76   2.028       .  S
Zn67         O83   2.024   1_545  S
Zn68         O71   1.984   1_565  S
Zn68         O73   2.043       .  S
Zn68         O75   2.055   1_554  S
Zn68         O79   2.051       .  S
Zn69         O71   1.949       .  S
Zn69         O74   2.013   1_554  S
Zn69         O77   1.999       .  S
Zn69         O80   2.002       .  S
Zn70         O71   1.958   1_565  S
Zn70         O78   2.029   1_565  S
Zn70         O81   2.002       .  S
Zn70         O82   2.011   1_554  S
O72          C84   1.273       .  A
O73          C85   1.276   1_565  A
O74          C86   1.272       .  A
O75          C84   1.278       .  A
O76          C86   1.275       .  A
O77          C85   1.270       .  A
O78          C87   1.274       .  A
O79          C88   1.278       .  A
O80          C87   1.270       .  A
O81          C88   1.273       .  A
O82          C89   1.271       .  A
O83          C89   1.274       .  A
C84         C794   1.480       .  S
C85         C904   1.473       .  S
C86         C830   1.475       .  S
C87         C976   1.475       .  S
C88         C938   1.476       .  S
C89         C868   1.474       .  S
C90          C91   1.408       .  A
C90          C95   1.406       .  A
C90         C742   1.490       .  S
C91          C92   1.402       .  A
C91          H96   1.083   1_455  S
C92          C93   1.405       .  A
C92         C758   1.489   1_455  S
C93          C94   1.404       .  A
C93          H97   1.081       .  S
C94          C95   1.406       .  A
C94         C119   1.476       .  S
C95          H98   1.084       .  S
C99         C100   1.405   1_545  A
C99         C104   1.410       .  A
C99         C722   1.492   1_545  S
C100        C101   1.404   1_565  A
C100        H105   1.084       .  S
C101        C102   1.401       .  A
C101        C117   1.471       .  S
C102        C103   1.400       .  A
C102        H106   1.084       .  S
C103        C104   1.407       .  A
C103        C704   1.486       .  S
C104        H107   1.080       .  S
C108        C109   1.402       .  A
C108        C113   1.407       .  A
C108        C688   1.487       .  S
C109        C110   1.403       .  A
C109        H114   1.084       .  S
C110        C111   1.404       .  A
C110        C121   1.476       .  S
C111        C112   1.404       .  A
C111        H115   1.084       .  S
C112        C113   1.409       .  A
C112        C668   1.490       .  S
C113        H116   1.080       .  S
C117        N118   1.360   1_545  A
C117        N122   1.359       .  A
N118        C119   1.360       .  A
C119        N120   1.359   1_565  A
N120        C121   1.357       .  A
C121        N122   1.358       .  A
Zn123       O127   1.962       .  S
Zn123       O128   2.017       .  S
Zn123       O132   2.026       .  S
Zn123       O139   2.027       .  S
Zn124       O127   1.968       .  S
Zn124       O129   2.023       .  S
Zn124       O131   2.029       .  S
Zn124       O135   2.029       .  S
Zn125       O127   1.961       .  S
Zn125       O130   2.012   1_655  S
Zn125       O133   2.018       .  S
Zn125       O136   2.014       .  S
Zn126       O127   1.959       .  S
Zn126       O134   2.020       .  S
Zn126       O137   2.010       .  S
Zn126       O138   2.023       .  S
O128        C140   1.273       .  A
O129        C141   1.273       .  A
O130        C142   1.272       .  A
O131        C140   1.276       .  A
O132        C142   1.275   1_655  A
O133        C141   1.273       .  A
O134        C143   1.274       .  A
O135        C144   1.276       .  A
O136        C143   1.272       .  A
O137        C144   1.273       .  A
O138        C145   1.273       .  A
O139        C145   1.275       .  A
C140        C814   1.478       .  S
C141        C740   1.479       .  S
C142        C776   1.475       .  S
C143        C686   1.476   1_655  S
C144        C706   1.475       .  S
C145        C850   1.479       .  S
C146        C147   1.405       .  A
C146        C151   1.408       .  A
C146        C634   1.488       .  S
C147        C148   1.404       .  A
C147        H152   1.084       .  S
C148        C149   1.406       .  A
C148        C173   1.476       .  S
C149        C150   1.401       .  A
C149        H153   1.084       .  S
C150        C151   1.407       .  A
C150        C652   1.487       .  S
C151        H154   1.082       .  S
C155        C156   1.400       .  A
C155        C160   1.403       .  A
C155        C596   1.483       .  S
C156        C157   1.406   1_455  A
C156        H161   1.084       .  S
C157        C158   1.410   1_655  A
C157        C177   1.481       .  S
C158        C159   1.413       .  A
C158        H162   1.081   1_455  S
C159        C160   1.405       .  A
C159        C614   1.494       .  S
C160        H163   1.084       .  S
C164        C165   1.405       .  A
C164        C169   1.407       .  A
C164        C580   1.489       .  S
C165        C166   1.405       .  A
C165        H170   1.084       .  S
C166        C167   1.405       .  A
C166        C175   1.474       .  S
C167        C168   1.402       .  A
C167        H171   1.084       .  S
C168        C169   1.406       .  A
C168        C560   1.488       .  S
C169        H172   1.081       .  S
C173        N174   1.356       .  A
C173        N178   1.362       .  A
N174        C175   1.355       .  A
C175        N176   1.359       .  A
N176        C177   1.363       .  A
C177        N178   1.363       .  A
Zn179       O183   1.952       .  S
Zn179       O184   2.004       .  S
Zn179       O188   2.020       .  S
Zn179       O195   2.006       .  S
Zn180       O183   1.982       .  S
Zn180       O185   2.041       .  S
Zn180       O187   2.046       .  S
Zn180       O191   2.036       .  S
Zn181       O183   1.954       .  S
Zn181       O186   2.016       .  S
Zn181       O189   1.998       .  S
Zn181       O192   2.013       .  S
Zn182       O183   1.969       .  S
Zn182       O190   2.031       .  S
Zn182       O193   2.016       .  S
Zn182       O194   2.034       .  S
O184        C196   1.271       .  A
O185        C197   1.276       .  A
O186        C198   1.272       .  A
O187        C196   1.276       .  A
O188        C198   1.274       .  A
O189        C197   1.271       .  A
O190        C199   1.275       .  A
O191        C200   1.277       .  A
O192        C199   1.272       .  A
O193        C200   1.273       .  A
O194        C201   1.276       .  A
O195        C201   1.272       .  A
C196        C724   1.477       .  S
C197        C562   1.474       .  S
C198        C760   1.478       .  S
C199        C632   1.479       .  S
C200        C598   1.477       .  S
C201        C670   1.475       .  S
C202        C203   1.410       .  A
C202        C207   1.404       .  A
C202        C524   1.489       .  S
C203        C204   1.410       .  A
C203        H208   1.080       .  S
C204        C205   1.400       .  A
C204        C542   1.486       .  S
C205        C206   1.400       .  A
C205        H209   1.084       .  S
C206        C207   1.404       .  A
C206        C233   1.475       .  S
C207        H210   1.084       .  S
C211        C212   1.405       .  A
C211        C216   1.410       .  A
C211        C488   1.489       .  S
C212        C213   1.404       .  A
C212        H217   1.084       .  S
C213        C214   1.401       .  A
C213        C231   1.470       .  S
C214        C215   1.398       .  A
C214        H218   1.084       .  S
C215        C216   1.404       .  A
C215        C506   1.479       .  S
C216        H219   1.081       .  S
C220        C221   1.404       .  A
C220        C225   1.408       .  A
C220        C470   1.486       .  S
C221        C222   1.404       .  A
C221        H226   1.084       .  S
C222        C223   1.402       .  A
C222        C229   1.471       .  S
C223        C224   1.400       .  A
C223        H227   1.084       .  S
C224        C225   1.405       .  A
C224        C454   1.484       .  S
C225        H228   1.082       .  S
C229        N230   1.358       .  A
C229        N234   1.358       .  A
N230        C231   1.359       .  A
C231        N232   1.358       .  A
N232        C233   1.357       .  A
C233        N234   1.358       .  A
Zn235       O239   1.948       .  S
Zn235       O240   1.992       .  S
Zn235       O244   1.998       .  S
Zn235       O251   2.020       .  S
Zn236       O239   1.983   1_565  S
Zn236       O241   2.046       .  S
Zn236       O243   2.049   1_565  S
Zn236       O247   2.049       .  S
Zn237       O239   1.970   1_565  S
Zn237       O242   2.038   1_565  S
Zn237       O245   2.022       .  S
Zn237       O248   2.039       .  S
Zn238       O239   1.946       .  S
Zn238       O246   1.990   1_545  S
Zn238       O249   1.989       .  S
Zn238       O250   2.009       .  S
O240        C252   1.271       .  A
O241        C253   1.278       .  A
O242        C254   1.276       .  A
O243        C252   1.277       .  A
O244        C254   1.270       .  A
O245        C253   1.274       .  A
O246        C255   1.270       .  A
O247        C256   1.277       .  A
O248        C255   1.276       .  A
O249        C256   1.270   1_545  A
O250        C257   1.271       .  A
O251        C257   1.271       .  A
C252        C650   1.474       .  S
C253        C616   1.483       .  S
C254        C578   1.476       .  S
C255        C544   1.471       .  S
C256        C472   1.474       .  S
C257        C508   1.476       .  S
C258        C259   1.398   1_455  A
C258        C263   1.408       .  A
C258        C434   1.485       .  S
C259        C260   1.403   1_545  A
C259        H264   1.084       .  S
C260        C261   1.404   1_655  A
C260        C416   1.487       .  S
C261        C262   1.410   1_565  A
C261        H265   1.084       .  S
C262        C263   1.413       .  A
C262        C285   1.484       .  S
C263        H266   1.083       .  S
C267        C268   1.404       .  A
C267        C272   1.406       .  A
C267        C398   1.491       .  S
C268        C269   1.408       .  A
C268        H273   1.084       .  S
C269        C270   1.407       .  A
C269        C289   1.482       .  S
C270        C271   1.403       .  A
C270        H274   1.084       .  S
C271        C272   1.406       .  A
C271        C382   1.488       .  S
C272        H275   1.081       .  S
C276        C277   1.407       .  A
C276        C281   1.405       .  A
C276        C364   1.493       .  S
C277        C278   1.410       .  A
C277        H282   1.084       .  S
C278        C279   1.405       .  A
C278        C287   1.481       .  S
C279        C280   1.404       .  A
C279        H283   1.084       .  S
C280        C281   1.407       .  A
C280        C346   1.491       .  S
C281        H284   1.081       .  S
C285        N286   1.363   1_545  A
C285        N290   1.360       .  A
N286        C287   1.362       .  A
C287        N288   1.359   1_565  A
N288        C289   1.360       .  A
C289        N290   1.360       .  A
Zn291       O295   1.976       .  S
Zn291       O296   2.058       .  S
Zn291       O300   2.041       .  S
Zn291       O307   2.041       .  S
Zn292       O295   1.951       .  S
Zn292       O297   2.006       .  S
Zn292       O299   2.006       .  S
Zn292       O303   2.008       .  S
Zn293       O295   1.956       .  S
Zn293       O298   2.005       .  S
Zn293       O301   2.017       .  S
Zn293       O304   2.021       .  S
Zn294       O295   1.961       .  S
Zn294       O302   2.032       .  S
Zn294       O305   2.019       .  S
Zn294       O306   2.006       .  S
O296        C308   1.277       .  A
O297        C309   1.271       .  A
O298        C310   1.272       .  A
O299        C308   1.272       .  A
O300        C310   1.277       .  A
O301        C309   1.274       .  A
O302        C311   1.274       .  A
O303        C312   1.273       .  A
O304        C311   1.273       .  A
O305        C312   1.272       .  A
O306        C313   1.273       .  A
O307        C313   1.277       .  A
C308        C362   1.480       .  S
C309        C884   1.473       .  S
C310        C418   1.475       .  S
C311        C920   1.480       .  S
C312        C956   1.475       .  S
C313        C380   1.474       .  S
Zn314       O318   1.960       .  S
Zn314       O319   2.021       .  S
Zn314       O323   2.011       .  S
Zn314       O330   2.029       .  S
Zn315       O318   1.952       .  S
Zn315       O320   2.015       .  S
Zn315       O322   2.015       .  S
Zn315       O326   1.998       .  S
Zn316       O318   1.966       .  S
Zn316       O321   2.041       .  S
Zn316       O324   2.040       .  S
Zn316       O327   2.008       .  S
Zn317       O318   1.973       .  S
Zn317       O325   2.030       .  S
Zn317       O328   2.038       .  S
Zn317       O329   2.021       .  S
O319        C331   1.273       .  A
O320        C332   1.272       .  A
O321        C333   1.277       .  A
O322        C331   1.274       .  A
O323        C333   1.273       .  A
O324        C332   1.276       .  A
O325        C334   1.276       .  A
O326        C335   1.271       .  A
O327        C334   1.272       .  A
O328        C335   1.276       .  A
O329        C336   1.273       .  A
O330        C336   1.274       .  A
C331        C452   1.477       .  S
C332        C436   1.481       .  S
C333        C400   1.477       .  S
C334        C344   1.474       .  S
C335        C490   1.473   1_655  S
C336        C526   1.480       .  S
C337        C338   1.404       .  A
C337        C342   1.410       .  A
C337        C345   1.490       .  S
C338        C339   1.395       .  A
C338        H347   1.083       .  S
C339        C340   1.406       .  A
C339        H348   1.082       .  S
C340        C341   1.404       .  A
C340        C343   1.489       .  S
C341        C342   1.402       .  A
C341        H349   1.083       .  S
C342        H350   1.080       .  S
C343        H351   1.086       .  S
C343        C344   1.346   1_455  D
C344        H352   1.084       .  S
C345        H353   1.085       .  S
C345        C346   1.349       .  D
C346        H354   1.083       .  S
C355        C356   1.404       .  A
C355        C360   1.408       .  A
C355        C363   1.490       .  S
C356        C357   1.398       .  A
C356        H365   1.083       .  S
C357        C358   1.407       .  A
C357        H366   1.083       .  S
C358        C359   1.406       .  A
C358        C361   1.492       .  S
C359        C360   1.405       .  A
C359        H367   1.083       .  S
C360        H368   1.082       .  S
C361        H369   1.086       .  S
C361        C362   1.347       .  D
C362        H370   1.086       .  S
C363        H371   1.086       .  S
C363        C364   1.351       .  D
C364        H372   1.085       .  S
C373        C374   1.402       .  A
C373        C378   1.408       .  A
C373        C381   1.484       .  S
C374        C375   1.394       .  A
C374        H383   1.083       .  S
C375        C376   1.406       .  A
C375        H384   1.082       .  S
C376        C377   1.405       .  A
C376        C379   1.487       .  S
C377        C378   1.404       .  A
C377        H385   1.083       .  S
C378        H386   1.082       .  S
C379        H387   1.087       .  S
C379        C380   1.345       .  D
C380        H388   1.086       .  S
C381        H389   1.086       .  S
C381        C382   1.347       .  D
C382        H390   1.086       .  S
C391        C392   1.404       .  A
C391        C396   1.406       .  A
C391        C399   1.487       .  S
C392        C393   1.403       .  A
C392        H401   1.083       .  S
C393        C394   1.409       .  A
C393        H402   1.082       .  S
C394        C395   1.403       .  A
C394        C397   1.487       .  S
C395        C396   1.396       .  A
C395        H403   1.083       .  S
C396        H404   1.083       .  S
C397        H405   1.085       .  S
C397        C398   1.349       .  D
C398        H406   1.085       .  S
C399        H407   1.086       .  S
C399        C400   1.346       .  D
C400        H408   1.086       .  S
C409        C410   1.404       .  A
C409        C414   1.406       .  A
C409        C417   1.487       .  S
C410        C411   1.401       .  A
C410        H419   1.083       .  S
C411        C412   1.407       .  A
C411        H420   1.081       .  S
C412        C413   1.404       .  A
C412        C415   1.485       .  S
C413        C414   1.396       .  A
C413        H421   1.084       .  S
C414        H422   1.082       .  S
C415        H423   1.087       .  S
C415        C416   1.349       .  D
C416        H424   1.085       .  S
C417        H425   1.087       .  S
C417        C418   1.345       .  D
C418        H426   1.086       .  S
C427        C428   1.405       .  A
C427        C432   1.411       .  A
C427        C435   1.496       .  S
C428        C429   1.399   1_655  A
C428        H437   1.083       .  S
C429        C430   1.408       .  A
C429        H438   1.082       .  S
C430        C431   1.403       .  A
C430        C433   1.492       .  S
C431        C432   1.402   1_455  A
C431        H439   1.083       .  S
C432        H440   1.080       .  S
C433        H441   1.086       .  S
C433        C434   1.346       .  D
C434        H442   1.085   1_455  S
C435        H443   1.087       .  S
C435        C436   1.348       .  D
C436        H444   1.082       .  S
C445        C446   1.403       .  A
C445        C450   1.407       .  A
C445        C453   1.485   1_545  S
C446        C447   1.397       .  A
C446        H455   1.083       .  S
C447        C448   1.408       .  A
C447        H456   1.080       .  S
C448        C449   1.404       .  A
C448        C451   1.489       .  S
C449        C450   1.398       .  A
C449        H457   1.083       .  S
C450        H458   1.082       .  S
C451        H459   1.087       .  S
C451        C452   1.347       .  D
C452        H460   1.083       .  S
C453        H461   1.086       .  S
C453        C454   1.347       .  D
C454        H462   1.085       .  S
C463        C464   1.405       .  A
C463        C468   1.410       .  A
C463        C471   1.492       .  S
C464        C465   1.402       .  A
C464        H473   1.083       .  S
C465        C466   1.408       .  A
C465        H474   1.082       .  S
C466        C467   1.401       .  A
C466        C469   1.485       .  S
C467        C468   1.395       .  A
C467        H475   1.083       .  S
C468        H476   1.080       .  S
C469        H477   1.086       .  S
C469        C470   1.346       .  D
C470        H478   1.085       .  S
C471        H479   1.086       .  S
C471        C472   1.345       .  D
C472        H480   1.083       .  S
C481        C482   1.404       .  A
C481        C486   1.407       .  A
C481        C489   1.488       .  S
C482        C483   1.402       .  A
C482        H491   1.083       .  S
C483        C484   1.410       .  A
C483        H492   1.080       .  S
C484        C485   1.402       .  A
C484        C487   1.488       .  S
C485        C486   1.394       .  A
C485        H493   1.084       .  S
C486        H494   1.081       .  S
C487        H495   1.084       .  S
C487        C488   1.348       .  D
C488        H496   1.084       .  S
C489        H497   1.087       .  S
C489        C490   1.345       .  D
C490        H498   1.085       .  S
C499        C500   1.403       .  A
C499        C504   1.406       .  A
C499        C507   1.482       .  S
C500        C501   1.399       .  A
C500        H509   1.083       .  S
C501        C502   1.405       .  A
C501        H510   1.083       .  S
C502        C503   1.402       .  A
C502        C505   1.479       .  S
C503        C504   1.397       .  A
C503        H511   1.083       .  S
C504        H512   1.083       .  S
C505        H513   1.087       .  S
C505        C506   1.344       .  D
C506        H514   1.086       .  S
C507        H515   1.087       .  S
C507        C508   1.346       .  D
C508        H516   1.086       .  S
C517        C518   1.405       .  A
C517        C522   1.408       .  A
C517        C525   1.493       .  S
C518        C519   1.401       .  A
C518        H527   1.084       .  S
C519        C520   1.409       .  A
C519        H528   1.080       .  S
C520        C521   1.404       .  A
C520        C523   1.491       .  S
C521        C522   1.398       .  A
C521        H529   1.084       .  S
C522        H530   1.080       .  S
C523        H531   1.086       .  S
C523        C524   1.348       .  D
C524        H532   1.085       .  S
C525        H533   1.088       .  S
C525        C526   1.348       .  D
C526        H534   1.084       .  S
C535        C536   1.401       .  A
C535        C540   1.407       .  A
C535        C543   1.482       .  S
C536        C537   1.400       .  A
C536        H545   1.084       .  S
C537        C538   1.410       .  A
C537        H546   1.081       .  S
C538        C539   1.401       .  A
C538        C541   1.484       .  S
C539        C540   1.395       .  A
C539        H547   1.084       .  S
C540        H548   1.082       .  S
C541        H549   1.085       .  S
C541        C542   1.345       .  D
C542        H550   1.086       .  S
C543        H551   1.087       .  S
C543        C544   1.342   1_655  D
C544        H552   1.087       .  S
C553        C554   1.403       .  A
C553        C558   1.405       .  A
C553        C561   1.486       .  S
C554        C555   1.403   1_565  A
C554        H563   1.082   1_565  S
C555        C556   1.409       .  A
C555        H564   1.082       .  S
C556        C557   1.403   1_545  A
C556        C559   1.487       .  S
C557        C558   1.394       .  A
C557        H565   1.083       .  S
C558        H566   1.083       .  S
C559        H567   1.085       .  S
C559        C560   1.348       .  D
C560        H568   1.083       .  S
C561        H569   1.086       .  S
C561        C562   1.345       .  D
C562        H570   1.086       .  S
C571        C572   1.406   1_655  A
C571        C576   1.404       .  A
C571        C579   1.488       .  S
C572        C573   1.400       .  A
C572        H581   1.081       .  S
C573        C574   1.411       .  A
C573        H582   1.079       .  S
C574        C575   1.403   1_455  A
C574        C577   1.492       .  S
C575        C576   1.397       .  A
C575        H583   1.084       .  S
C576        H584   1.083       .  S
C577        H585   1.088       .  S
C577        C578   1.345       .  D
C578        H586   1.084       .  S
C579        H587   1.085       .  S
C579        C580   1.351       .  D
C580        H588   1.084       .  S
C589        C590   1.403       .  A
C589        C594   1.407       .  A
C589        C597   1.484       .  S
C590        C591   1.400       .  A
C590        H599   1.083       .  S
C591        C592   1.406       .  A
C591        H600   1.083       .  S
C592        C593   1.403       .  A
C592        C595   1.483       .  S
C593        C594   1.399       .  A
C593        H601   1.083       .  S
C594        H602   1.083       .  S
C595        H603   1.086       .  S
C595        C596   1.346       .  D
C596        H604   1.086       .  S
C597        H605   1.086       .  S
C597        C598   1.344       .  D
C598        H606   1.086       .  S
C607        C608   1.403       .  A
C607        C612   1.410       .  A
C607        C615   1.494       .  S
C608        C609   1.399       .  A
C608        H617   1.084       .  S
C609        C610   1.409       .  A
C609        H618   1.081       .  S
C610        C611   1.404       .  A
C610        C613   1.494       .  S
C611        C612   1.403       .  A
C611        H619   1.084       .  S
C612        H620   1.081       .  S
C613        H621   1.084       .  S
C613        C614   1.349       .  D
C614        H622   1.085       .  S
C615        H623   1.087       .  S
C615        C616   1.347       .  D
C616        H624   1.085       .  S
C625        C626   1.407       .  A
C625        C630   1.404       .  A
C625        C633   1.488       .  S
C626        C627   1.401       .  A
C626        H635   1.082       .  S
C627        C628   1.410       .  A
C627        H636   1.080       .  S
C628        C629   1.403       .  A
C628        C631   1.491       .  S
C629        C630   1.398       .  A
C629        H637   1.084       .  S
C630        H638   1.083       .  S
C631        H639   1.088       .  S
C631        C632   1.346       .  D
C632        H640   1.084       .  S
C633        H641   1.086       .  S
C633        C634   1.349       .  D
C634        H642   1.084       .  S
C643        C644   1.401       .  A
C643        C648   1.409       .  A
C643        C651   1.486       .  S
C644        C645   1.394       .  A
C644        H653   1.083       .  S
C645        C646   1.408       .  A
C645        H654   1.082       .  S
C646        C647   1.405       .  A
C646        C649   1.490       .  S
C647        C648   1.404       .  A
C647        H655   1.083       .  S
C648        H656   1.082       .  S
C649        H657   1.087       .  S
C649        C650   1.346       .  D
C650        H658   1.085       .  S
C651        H659   1.086       .  S
C651        C652   1.346       .  D
C652        H660   1.086       .  S
C661        C662   1.404       .  A
C661        C666   1.407       .  A
C661        C669   1.487       .  S
C662        C663   1.401       .  A
C662        H671   1.083       .  S
C663        C664   1.409       .  A
C663        H672   1.082       .  S
C664        C665   1.403       .  A
C664        C667   1.487       .  S
C665        C666   1.395       .  A
C665        H673   1.083       .  S
C666        H674   1.082       .  S
C667        H675   1.084       .  S
C667        C668   1.348       .  D
C668        H676   1.084       .  S
C669        H677   1.086       .  S
C669        C670   1.346       .  D
C670        H678   1.085       .  S
C679        C680   1.402       .  A
C679        C684   1.407       .  A
C679        C687   1.485       .  S
C680        C681   1.397       .  A
C680        H689   1.083       .  S
C681        C682   1.409       .  A
C681        H690   1.080       .  S
C682        C683   1.405       .  A
C682        C685   1.490   1_455  S
C683        C684   1.400       .  A
C683        H691   1.083   1_455  S
C684        H692   1.082       .  S
C685        H693   1.087       .  S
C685        C686   1.347   1_655  D
C686        H694   1.083       .  S
C687        H695   1.086       .  S
C687        C688   1.348       .  D
C688        H696   1.085       .  S
C697        C698   1.405       .  A
C697        C702   1.408       .  A
C697        C705   1.489       .  S
C698        C699   1.401       .  A
C698        H707   1.083       .  S
C699        C700   1.408       .  A
C699        H708   1.081       .  S
C700        C701   1.402       .  A
C700        C703   1.487       .  S
C701        C702   1.396       .  A
C701        H709   1.084       .  S
C702        H710   1.081       .  S
C703        H711   1.086       .  S
C703        C704   1.347       .  D
C704        H712   1.085       .  S
C705        H713   1.087       .  S
C705        C706   1.347       .  D
C706        H714   1.084       .  S
C715        C716   1.405       .  A
C715        C720   1.408       .  A
C715        C723   1.493       .  S
C716        C717   1.403       .  A
C716        H725   1.083       .  S
C717        C718   1.410       .  A
C717        H726   1.080       .  S
C718        C719   1.403       .  A
C718        C721   1.491       .  S
C719        C720   1.396       .  A
C719        H727   1.084       .  S
C720        H728   1.081       .  S
C721        H729   1.084       .  S
C721        C722   1.349       .  D
C722        H730   1.084       .  S
C723        H731   1.087       .  S
C723        C724   1.347       .  D
C724        H732   1.084       .  S
C733        C734   1.404       .  A
C733        C738   1.407   1_655  A
C733        C741   1.490   1_655  S
C734        C735   1.397       .  A
C734        H743   1.083       .  S
C735        C736   1.407       .  A
C735        H744   1.081       .  S
C736        C737   1.406   1_655  A
C736        C739   1.491       .  S
C737        C738   1.401       .  A
C737        H745   1.083       .  S
C738        H746   1.081       .  S
C739        H747   1.086       .  S
C739        C740   1.349       .  D
C740        H748   1.083       .  S
C741        H749   1.085   1_455  S
C741        C742   1.350       .  D
C742        H750   1.084       .  S
C751        C752   1.403       .  A
C751        C756   1.409       .  A
C751        C759   1.489       .  S
C752        C753   1.397       .  A
C752        H761   1.084       .  S
C753        C754   1.407       .  A
C753        H762   1.081       .  S
C754        C755   1.403       .  A
C754        C757   1.488       .  S
C755        C756   1.399       .  A
C755        H763   1.084       .  S
C756        H764   1.080       .  S
C757        H765   1.085       .  S
C757        C758   1.349       .  D
C758        H766   1.085       .  S
C759        H767   1.087       .  S
C759        C760   1.347       .  D
C760        H768   1.084       .  S
C769        C770   1.403       .  A
C769        C774   1.407       .  A
C769        C777   1.484       .  S
C770        C771   1.397       .  A
C770        H779   1.084       .  S
C771        C772   1.406       .  A
C771        H780   1.082       .  S
C772        C773   1.403       .  A
C772        C775   1.483       .  S
C773        C774   1.399       .  A
C773        H781   1.084       .  S
C774        H782   1.082       .  S
C775        H783   1.087       .  S
C775        C776   1.344       .  D
C776        H784   1.087       .  S
C777        H785   1.087       .  S
C777        C778   1.346       .  D
C778        H786   1.086       .  S
C787        C788   1.404       .  A
C787        C792   1.410       .  A
C787        C795   1.494       .  S
C788        C789   1.396       .  A
C788        H797   1.083       .  S
C789        C790   1.408       .  A
C789        H798   1.081       .  S
C790        C791   1.406       .  A
C790        C793   1.496       .  S
C791        C792   1.405       .  A
C791        H799   1.083       .  S
C792        H800   1.081       .  S
C793        H801   1.086       .  S
C793        C794   1.348       .  D
C794        H802   1.083       .  S
C795        H803   1.084       .  S
C795        C796   1.351       .  D
C796        H804   1.083       .  S
C805        C806   1.405       .  A
C805        C810   1.407       .  A
C805        C813   1.490       .  S
C806        C807   1.401       .  A
C806        H815   1.083       .  S
C807        C808   1.409       .  A
C807        H816   1.080       .  S
C808        C809   1.405       .  A
C808        C811   1.491       .  S
C809        C810   1.397       .  A
C809        H817   1.083       .  S
C810        H818   1.081       .  S
C811        H819   1.084       .  S
C811        C812   1.351       .  D
C812        H820   1.084       .  S
C813        H821   1.086       .  S
C813        C814   1.347       .  D
C814        H822   1.084       .  S
C823        C824   1.403       .  A
C823        C828   1.407       .  A
C823        C831   1.485       .  S
C824        C825   1.396       .  A
C824        H833   1.083       .  S
C825        C826   1.405       .  A
C825        H834   1.083       .  S
C826        C827   1.404       .  A
C826        C829   1.485       .  S
C827        C828   1.402       .  A
C827        H835   1.083       .  S
C828        H836   1.082       .  S
C829        H837   1.086       .  S
C829        C830   1.346       .  D
C830        H838   1.086       .  S
C831        H839   1.086       .  S
C831        C832   1.348       .  D
C832        H840   1.085       .  S
C841        C842   1.404       .  A
C841        C846   1.406       .  A
C841        C849   1.487       .  S
C842        C843   1.401       .  A
C842        H851   1.083       .  S
C843        C844   1.406       .  A
C843        H852   1.082       .  S
C844        C845   1.404       .  A
C844        C847   1.485   1_545  S
C845        C846   1.399       .  A
C845        H853   1.083   1_545  S
C846        H854   1.082       .  S
C847        H855   1.087       .  S
C847        C848   1.349       .  D
C848        H856   1.086       .  S
C849        H857   1.087       .  S
C849        C850   1.347       .  D
C850        H858   1.086       .  S
C859        C860   1.403       .  A
C859        C864   1.406       .  A
C859        C867   1.484   1_655  S
C860        C861   1.400       .  A
C860        H869   1.083       .  S
C861        C862   1.407       .  A
C861        H870   1.083       .  S
C862        C863   1.402       .  A
C862        C865   1.482       .  S
C863        C864   1.396       .  A
C863        H871   1.083       .  S
C864        H872   1.083       .  S
C865        H873   1.086       .  S
C865        C866   1.346       .  D
C866        H874   1.085       .  S
C867        H875   1.087       .  S
C867        C868   1.345       .  D
C868        H876   1.086   1_455  S
C877        C878   1.402   1_545  A
C877        C882   1.409       .  A
C877        C885   1.487       .  S
C878        C879   1.396       .  A
C878        H887   1.083       .  S
C879        C880   1.408       .  A
C879        H888   1.080       .  S
C880        C881   1.403       .  A
C880        C883   1.487       .  S
C881        C882   1.398   1_565  A
C881        H889   1.083       .  S
C882        H890   1.080       .  S
C883        H891   1.087       .  S
C883        C884   1.345       .  D
C884        H892   1.083       .  S
C885        H893   1.086       .  S
C885        C886   1.346       .  D
C886        H894   1.083       .  S
C895        C896   1.403       .  A
C895        C900   1.406       .  A
C895        C903   1.482       .  S
C896        C897   1.400       .  A
C896        H905   1.083       .  S
C897        C898   1.407       .  A
C897        H906   1.083       .  S
C898        C899   1.402       .  A
C898        C901   1.480       .  S
C899        C900   1.397       .  A
C899        H907   1.083       .  S
C900        H908   1.083       .  S
C901        H909   1.086       .  S
C901        C902   1.344       .  D
C902        H910   1.086       .  S
C903        H911   1.086       .  S
C903        C904   1.342       .  D
C904        H912   1.087       .  S
C913        C914   1.404       .  A
C913        C918   1.409       .  A
C913        C921   1.490       .  S
C914        C915   1.398       .  A
C914        H923   1.084       .  S
C915        C916   1.408       .  A
C915        H924   1.081       .  S
C916        C917   1.405       .  A
C916        C919   1.491       .  S
C917        C918   1.402       .  A
C917        H925   1.084       .  S
C918        H926   1.081       .  S
C919        H927   1.088       .  S
C919        C920   1.348       .  D
C920        H928   1.085       .  S
C921        H929   1.086       .  S
C921        C922   1.349       .  D
C922        H930   1.085       .  S
C931        C932   1.402       .  A
C931        C936   1.409   1_655  A
C931        C939   1.488       .  S
C932        C933   1.396       .  A
C932        H941   1.084       .  S
C933        C934   1.408   1_655  A
C933        H942   1.081       .  S
C934        C935   1.404       .  A
C934        C937   1.492       .  S
C935        C936   1.403       .  A
C935        H943   1.083       .  S
C936        H944   1.081       .  S
C937        H945   1.087       .  S
C937        C938   1.346       .  D
C938        H946   1.085       .  S
C939        H947   1.085       .  S
C939        C940   1.348       .  D
C940        H948   1.085       .  S
C949        C950   1.404       .  A
C949        C954   1.408       .  A
C949        C957   1.487       .  S
C950        C951   1.397       .  A
C950        H959   1.084       .  S
C951        C952   1.407       .  A
C951        H960   1.081       .  S
C952        C953   1.403       .  A
C952        C955   1.486       .  S
C953        C954   1.398       .  A
C953        H961   1.084       .  S
C954        H962   1.080       .  S
C955        H963   1.087       .  S
C955        C956   1.347       .  D
C956        H964   1.084       .  S
C957        H965   1.085       .  S
C957        C958   1.348       .  D
C958        H966   1.084       .  S
C967        C968   1.404       .  A
C967        C972   1.409       .  A
C967        C975   1.489       .  S
C968        C969   1.400       .  A
C968        H977   1.084       .  S
C969        C970   1.408       .  A
C969        H978   1.081   1_455  S
C970        C971   1.402       .  A
C970        C973   1.485       .  S
C971        C972   1.396       .  A
C971        H979   1.084       .  S
C972        H980   1.080       .  S
C973        H981   1.086       .  S
C973        C974   1.346       .  D
C974        H982   1.085   1_455  S
C975        H983   1.087       .  S
C975        C976   1.345       .  D
C976        H984   1.084       .  S
