geometry optimzed in LAMMPS
_audit_creation_date              2020-11-30 
_audit_creation_method            'lammps2cif' 
_symmetry_space_group_name_H-M    'P1' 
_symmetry_Int_Tables_number       1 
_symmetry_cell_setting            triclinic 
loop_ 
_symmetry_equiv_pos_as_xyz 
  x,y,z 
_cell_length_a                    39.171830551433565 
_cell_length_b                    39.326799995003064 
_cell_length_c                    26.691742523631213 
_cell_angle_alpha                 89.88928110254041 
_cell_angle_beta                  90.28301471674641 
_cell_angle_gamma                 120.11909351384521 
loop_ 
_atom_site_label 
_atom_site_type_symbol 
_atom_site_fract_x 
_atom_site_fract_y 
_atom_site_fract_z 
_atom_site_charge 
C1          C  0.21544247  0.38917260  0.53482372     0.03510
C2          C  0.23467205  0.43027368  0.53533844    -0.12640
C3          C  0.22732206  0.45093041  0.49784283     0.01010
C4          C  0.19851168  0.42917964  0.46123576    -0.11160
C5          C  0.17822929  0.38777937  0.46101089     0.03510
C6          C  0.18711366  0.36798318  0.49801440    -0.10580
H7          H  0.25518151  0.44584415  0.56548714     0.09100
H8          H  0.19168397  0.44445459  0.43277695     0.06630
H9          H  0.17268408  0.33617775  0.49764263     0.06480
C10         C  0.39277396  0.21838390  0.97098943     0.03510
C11         C  0.37144156  0.18585237  0.00260647    -0.12640
C12         C  0.39121740  0.17523902  0.03787087     0.01010
C13         C  0.43251746  0.19803799  0.04189175    -0.11160
C14         C  0.45393396  0.23010690  0.01019443     0.03510
C15         C  0.43410416  0.24028164  0.97495106    -0.10580
H16         H  0.33956538  0.16880758  0.99971320     0.09100
H17         H  0.44820069  0.19086386  0.06961998     0.06630
H18         H  0.45095636  0.26491361  0.95006648     0.06480
C19         C  0.21893499  0.39140512  0.96954145     0.03510
C20         C  0.23776134  0.43261307  0.97011960    -0.12640
C21         C  0.22613288  0.45189092  0.00391729     0.01010
C22         C  0.19476868  0.42999519  0.03647571    -0.11160
C23         C  0.17569779  0.38863057  0.03713310     0.03510
C24         C  0.18810572  0.36955671  0.00337602    -0.10580
H25         H  0.26143845  0.44983248  0.94413832     0.09100
H26         H  0.18568862  0.44543816  0.06183270     0.06630
H27         H  0.17484882  0.33790276  0.00433126     0.06480
C28         C  0.77770024  0.17393705  0.52940747     0.03510
C29         C  0.75776592  0.19521339  0.52881202    -0.12640
C30         C  0.77005646  0.22785734  0.49705677     0.01010
C31         C  0.80301304  0.23885402  0.46630814    -0.11160
C32         C  0.82100252  0.21566579  0.46296627     0.03510
C33         C  0.80865519  0.18359091  0.49578188    -0.10580
H34         H  0.73270667  0.18618031  0.55332700     0.09100
H35         H  0.81485766  0.26570104  0.44479805     0.06630
H36         H  0.82259524  0.16578108  0.49489251     0.06480
C37         C  0.77718927  0.17358319  0.96780539     0.03510
C38         C  0.75770756  0.19536919  0.96933153    -0.12640
C39         C  0.76825277  0.22520057  0.00484390     0.01010
C40         C  0.79873658  0.23351863  0.03887162    -0.11160
C41         C  0.81955679  0.21305396  0.03693073     0.03510
C42         C  0.80861598  0.18303788  0.00120120    -0.10580
H43         H  0.73420859  0.18909984  0.94287261     0.09100
H44         H  0.80668183  0.25650428  0.06648955     0.06630
H45         H  0.82456793  0.16719791  0.99915511     0.06480
C46         C  0.68673731  0.31314980  0.01232727     0.03510
C47         C  0.64559113  0.29289082  0.01674479    -0.12640
C48         C  0.62451408  0.31309154  0.01447906     0.01010
C49         C  0.64559465  0.35437728  0.01129160    -0.11160
C50         C  0.68701921  0.37520109  0.00776665     0.03510
C51         C  0.70726337  0.35412737  0.00738502    -0.10580
H52         H  0.63005753  0.26125332  0.02116771     0.09100
H53         H  0.62968000  0.37026991  0.01142482     0.06630
H54         H  0.73909072  0.36957873  0.00355618     0.06480
C55         C  0.78675596  0.60758015  0.03649223     0.03510
C56         C  0.76611202  0.56628525  0.03729785    -0.12640
C57         C  0.77524548  0.54506077  0.00330622     0.01010
C58         C  0.80534434  0.56503626  0.96842486    -0.11160
C59         C  0.82672070  0.60630144  0.96751251     0.03510
C60         C  0.81749677  0.62751429  0.00192550    -0.10580
H61         H  0.74278807  0.55057274  0.06432633     0.09100
H62         H  0.81224327  0.54840245  0.94210595     0.06630
H63         H  0.83317380  0.65934432  0.00061151     0.06480
O64         O  0.95938207  0.29578012  0.30059878    -0.74040
O65         O  0.04040877  0.33500116  0.20194140    -0.74070
O66         O  0.96081501  0.29770911  0.19975070    -0.74130
O67         O  0.03946141  0.33322432  0.30215838    -0.74180
O68         O  0.03783620  0.27564395  0.30044086    -0.74110
O69         O  0.95684402  0.23918221  0.19926072    -0.74090
O70         O  0.03705589  0.27668415  0.19848264    -0.74060
O71         O  0.95775037  0.23821402  0.30127980    -0.74130
Ni72       Ni  0.00002338  0.31737832  0.25124919     1.25410
Ni73       Ni  0.99724600  0.25525667  0.24983304     1.25360
C74         C  0.94521150  0.26070552  0.31715292     0.88140
C75         C  0.05223960  0.31252924  0.18419319     0.88070
C76         C  0.94584731  0.26276773  0.18238842     0.88100
C77         C  0.05220962  0.31071944  0.31726111     0.88270
C78         C  0.17634464  0.77950725  0.53421639     0.03510
C79         C  0.19811323  0.76000459  0.53376511    -0.12640
C80         C  0.22963161  0.77159478  0.50077314     0.01010
C81         C  0.23945484  0.80271603  0.46763501    -0.11160
C82         C  0.21775159  0.82234352  0.46704738     0.03510
C83         C  0.18622339  0.81061982  0.50057603    -0.10580
H84         H  0.19082567  0.73597504  0.55951065     0.09100
H85         H  0.26362913  0.81119647  0.44171598     0.06630
H86         H  0.16947547  0.82568714  0.50054040     0.06480
C87         C  0.37532765  0.68482757  0.48671933     0.03510
C88         C  0.35348687  0.64361025  0.48356777    -0.12640
C89         C  0.31254090  0.62274725  0.49238101     0.01010
C90         C  0.29350489  0.64435480  0.50167823    -0.11160
C91         C  0.31373968  0.68552313  0.49761943     0.03510
C92         C  0.35494376  0.70558562  0.49173928    -0.10580
H93         H  0.36869595  0.62785851  0.47454942     0.09100
H94         H  0.26284898  0.62935129  0.51254136     0.06630
H95         H  0.37120109  0.73739305  0.49143587     0.06480
C96         C  0.60976402  0.78662839  0.45867894     0.03510
C97         C  0.56831905  0.76389280  0.45881444    -0.12640
C98         C  0.54614143  0.77204686  0.49242104     0.01010
C99         C  0.56530526  0.80227084  0.52748140    -0.11160
C100        C  0.60673446  0.82514912  0.52857205     0.03510
C101        C  0.62876407  0.81748557  0.49351830    -0.10580
H102        H  0.55309946  0.73994651  0.43238693     0.09100
H103        H  0.54782275  0.80797963  0.55386387     0.06630
H104        H  0.66048498  0.83636577  0.49225812     0.06480
C105        C  0.39048616  0.21680633  0.53151422     0.03510
C106        C  0.43195805  0.23761428  0.52896974    -0.12640
C107        C  0.45171726  0.22687744  0.49474566     0.01010
C108        C  0.43022387  0.19570152  0.46180051    -0.11160
C109        C  0.38871056  0.17523320  0.46202697     0.03510
C110        C  0.36904790  0.18572434  0.49750404    -0.10580
H111        H  0.44914753  0.26227589  0.55375373     0.09100
H112        H  0.44606560  0.18746459  0.43590367     0.06630
H113        H  0.33720455  0.16974926  0.49861621     0.06480
C114        C  0.68478080  0.37482309  0.49462160     0.03510
C115        C  0.70540011  0.35426344  0.49467416    -0.12640
C116        C  0.68477819  0.31308887  0.49435312     0.01010
C117        C  0.64341621  0.29249248  0.49304607    -0.11160
C118        C  0.62231960  0.31278606  0.49280031     0.03510
C119        C  0.64343931  0.35412713  0.49431680    -0.10580
H120        H  0.73739306  0.37025563  0.49530318     0.09100
H121        H  0.62778135  0.26065342  0.49181918     0.06630
H122        H  0.62791629  0.37039890  0.49603558     0.06480
C123        C  0.78331407  0.60797100  0.46513113     0.03510
C124        C  0.81605505  0.62769496  0.49713519    -0.12640
C125        C  0.82696302  0.60640961  0.52922247     0.01010
C126        C  0.80500650  0.56516703  0.52880437    -0.11160
C127        C  0.77181373  0.54491007  0.49763799     0.03510
C128        C  0.76128342  0.56667024  0.46574573    -0.10580
H129        H  0.83293962  0.65954220  0.49716267     0.09100
H130        H  0.81381608  0.54885434  0.55310483     0.06630
H131        H  0.73593598  0.55148654  0.44114057     0.06480
C132        C  0.17515685  0.77604693  0.96915238     0.03510
C133        C  0.19434009  0.75402441  0.97395169    -0.12640
C134        C  0.22379300  0.76375528  0.01014569     0.01010
C135        C  0.23357920  0.79506584  0.04283789    -0.11160
C136        C  0.21505690  0.81760969  0.03868072     0.03510
C137        C  0.18633216  0.80836137  0.00128220    -0.10580
H138        H  0.18639866  0.72908067  0.94965698     0.09100
H139        H  0.25630453  0.80239618  0.07094776     0.06630
H140        H  0.17371649  0.82711304  0.99634581     0.06480
C141        C  0.31319046  0.68371627  0.01502642     0.03510
C142        C  0.35445920  0.70464865  0.01228404    -0.12640
C143        C  0.37586110  0.68477985  0.01096488     0.01010
C144        C  0.35517946  0.64339857  0.01131216    -0.11160
C145        C  0.31367547  0.62192253  0.01431943     0.03510
C146        C  0.29308064  0.64260537  0.01703594    -0.10580
H147        H  0.36987547  0.73648386  0.01091913     0.09100
H148        H  0.37148387  0.62800338  0.00900976     0.06630
H149        H  0.26118303  0.62676560  0.01977465     0.06480
C150        C  0.61071218  0.78776151  0.03518729     0.03510
C151        C  0.56939829  0.76659922  0.03857153    -0.12640
C152        C  0.54644055  0.77577448  0.00728444     0.01010
C153        C  0.56477740  0.80623294  0.97242850    -0.11160
C154        C  0.60606305  0.82664024  0.96668479     0.03510
C155        C  0.62894405  0.81760431  0.99910801    -0.10580
H156        H  0.55510076  0.74294301  0.06553295     0.09100
H157        H  0.54656306  0.81370732  0.94962528     0.06630
H158        H  0.66075133  0.83275506  0.99535707     0.06480
O159        O  0.65252006  0.95941368  0.79699329    -0.74040
O160        O  0.69159442  0.03998722  0.69695096    -0.74070
O161        O  0.65277813  0.96096844  0.69600271    -0.74130
O162        O  0.69152679  0.03892199  0.79879757    -0.74180
O163        O  0.74940153  0.04091543  0.79838272    -0.74110
O164        O  0.70966465  0.96102240  0.69627371    -0.74090
O165        O  0.74912614  0.04108388  0.69687010    -0.74060
O166        O  0.71040999  0.96126956  0.79849330    -0.74130
Ni167      Ni  0.67014353  0.99984812  0.74726677     1.25410
Ni168      Ni  0.73173256  0.00107166  0.74746500     1.25360
C169        C  0.67500692  0.94719282  0.81425899     0.88140
C170        C  0.72663385  0.05352170  0.68019914     0.88070
C171        C  0.67467202  0.94817117  0.67886872     0.88100
C172        C  0.72674057  0.05284270  0.81565778     0.88270
O173        O  0.72191432  0.76046691  0.29822921    -0.74040
O174        O  0.76076947  0.71856248  0.19793197    -0.74070
O175        O  0.72223415  0.76019013  0.19627048    -0.74130
O176        O  0.76012552  0.71878390  0.29955026    -0.74180
O177        O  0.70144205  0.66380953  0.30049672    -0.74110
O178        O  0.66536961  0.70322557  0.19449784    -0.74090
O179        O  0.70327266  0.66227457  0.19913833    -0.74060
O180        O  0.66342650  0.70514705  0.29522511    -0.74130
Ni181      Ni  0.74340788  0.74158154  0.24802096     1.25410
Ni182      Ni  0.68141743  0.68166362  0.24741456     1.25360
C183        C  0.68598584  0.73976857  0.31243375     0.88140
C184        C  0.73828091  0.68339360  0.18205863     0.88070
C185        C  0.68757477  0.73810207  0.17798063     0.88100
C186        C  0.73675182  0.68445186  0.31721464     0.88270
O187        O  0.30112247  0.95761824  0.20156710    -0.74040
O188        O  0.33875616  0.03975969  0.29867112    -0.74070
O189        O  0.30192174  0.96055909  0.30278939    -0.74130
O190        O  0.33790106  0.03635309  0.19807473    -0.74180
O191        O  0.28037216  0.03504484  0.19761935    -0.74110
O192        O  0.24290280  0.95601688  0.30082763    -0.74090
O193        O  0.27986475  0.03577354  0.29964380    -0.74060
O194        O  0.24309315  0.95518244  0.19889157    -0.74130
Ni195      Ni  0.32187710  0.99860285  0.25039944     1.25410
Ni196      Ni  0.25936887  0.99537275  0.24921779     1.25360
C197        C  0.26631530  0.94337027  0.18331067     0.88140
C198        C  0.31564828  0.05135973  0.31498872     0.88070
C199        C  0.26666600  0.94570215  0.31924954     0.88100
C200        C  0.31541607  0.04845416  0.18058506     0.88270
O201        O  0.96131885  0.71047863  0.80091832    -0.74040
O202        O  0.04101295  0.74834330  0.69940557    -0.74070
O203        O  0.96097090  0.71005114  0.69909691    -0.74130
O204        O  0.04105468  0.74854444  0.80121966    -0.74180
O205        O  0.03978813  0.69114380  0.80046150    -0.74110
O206        O  0.95978791  0.65276101  0.69938329    -0.74090
O207        O  0.03892679  0.69065457  0.69948683    -0.74060
O208        O  0.95967708  0.65287671  0.80070981    -0.74130
Ni209      Ni  0.00113949  0.73145051  0.75016618     1.25410
Ni210      Ni  0.99945170  0.66982786  0.75017939     1.25360
C211        C  0.94742886  0.67538366  0.81725926     0.88140
C212        C  0.05277975  0.72551868  0.68232237     0.88070
C213        C  0.94758873  0.67515910  0.68199287     0.88100
C214        C  0.05378211  0.72616809  0.81713381     0.88270
O215        O  0.28748619  0.24620750  0.80203433    -0.74040
O216        O  0.24577671  0.28530107  0.70125102    -0.74070
O217        O  0.28583458  0.24568170  0.69999996    -0.74130
O218        O  0.24731114  0.28586060  0.80269752    -0.74180
O219        O  0.30388609  0.34302816  0.80023618    -0.74110
O220        O  0.34364181  0.30181503  0.70152805    -0.74090
O221        O  0.30371765  0.34118622  0.69868684    -0.74060
O222        O  0.34361558  0.30386669  0.80248318    -0.74130
Ni223      Ni  0.26452024  0.26365284  0.75152115     1.25410
Ni224      Ni  0.32567431  0.32448152  0.75062467     1.25360
C225        C  0.32221856  0.26903582  0.81956452     0.88140
C226        C  0.26826610  0.31955853  0.68295296     0.88070
C227        C  0.32127058  0.26713115  0.68436675     0.88100
C228        C  0.26937123  0.32114106  0.81840305     0.88270
C229        C  0.62491606  0.85683885  0.92648961    -0.05080
C230        C  0.66050778  0.89200879  0.93606319    -0.32510
C231        C  0.67798336  0.92117249  0.89916299     0.36740
C232        C  0.65931477  0.91599121  0.85241148    -0.05440
C233        C  0.62437148  0.88084572  0.84229669    -0.32410
C234        C  0.60748512  0.85110604  0.87839987     0.36650
H235        H  0.67447867  0.89731967  0.97255997     0.17010
O236        O  0.71214242  0.95547561  0.91004912    -0.59910
H237        H  0.61033211  0.87620546  0.80588150     0.17030
O238        O  0.57507883  0.81582811  0.86545671    -0.60000
H239        H  0.55343232  0.82155237  0.85955813     0.44030
H240        H  0.73374184  0.95030810  0.90153385     0.43980
C241        C  0.63428950  0.77712569  0.06829771    -0.05080
C242        C  0.62796803  0.73877801  0.06653905    -0.32510
C243        C  0.64680220  0.72649620  0.10054980     0.36740
C244        C  0.67212136  0.75255651  0.13766114    -0.05440
C245        C  0.67988514  0.79152618  0.13805930    -0.32410
C246        C  0.66092463  0.80381775  0.10383567     0.36650
H247        H  0.60780562  0.71807574  0.03909068     0.17010
O248        O  0.63971532  0.68866057  0.09769885    -0.59910
H249        H  0.69915832  0.81189818  0.16640406     0.17030
O250        O  0.66725199  0.84136508  0.10681887    -0.60000
H251        H  0.64629237  0.83954068  0.12926930     0.44030
H252        H  0.66216380  0.69046667  0.07844812     0.43980
C253        C  0.50303410  0.75229625  0.00914628    -0.05080
C254        C  0.48292267  0.72053644  0.97624542    -0.32510
C255        C  0.44159829  0.69810764  0.97647526     0.36740
C256        C  0.41978465  0.70753190  0.00998846    -0.05440
C257        C  0.44026817  0.73958884  0.04281504    -0.32410
C258        C  0.48154053  0.76197945  0.04234721     0.36650
H259        H  0.49935558  0.71334758  0.94995505     0.17010
O260        O  0.42278836  0.66847833  0.94200434    -0.59910
H261        H  0.42419831  0.74723908  0.06908655     0.17030
O262        O  0.50064355  0.79318952  0.07454085    -0.60000
H263        H  0.50393506  0.81630849  0.05546458     0.44030
H264        H  0.42817851  0.64746044  0.95278339     0.43980
C265        C  0.22725573  0.85163341  0.07258491    -0.05080
C266        C  0.26760504  0.87831427  0.07943253    -0.32510
C267        C  0.28059895  0.90855064  0.11465223     0.36740
C268        C  0.25302818  0.91286517  0.14378685    -0.05440
C269        C  0.21251697  0.88714065  0.13546942    -0.32410
C270        C  0.19953745  0.85668265  0.10018570     0.36650
H271        H  0.28930189  0.87540644  0.05769745     0.17010
O272        O  0.32037194  0.93419207  0.11948775    -0.59910
H273        H  0.19080829  0.88985834  0.15740373     0.17030
O274        O  0.15988747  0.83055759  0.09529677    -0.60000
H275        H  0.14937704  0.84444248  0.07499187     0.44030
H276        H  0.33040079  0.92030788  0.14066850     0.43980
C277        C  0.08539544  0.74088650  0.85488908    -0.05080
C278        C  0.08044149  0.75473283  0.90100314    -0.32510
C279        C  0.10937634  0.76656996  0.93857703     0.36740
C280        C  0.14443460  0.76557895  0.92960582    -0.05440
C281        C  0.14960250  0.75289199  0.88241981    -0.32410
C282        C  0.12014205  0.73990429  0.84571866     0.36650
H283        H  0.05340320  0.75496635  0.90859285     0.17010
O284        O  0.10186188  0.77641652  0.98486353    -0.59910
H285        H  0.17651894  0.75271702  0.87390672     0.17030
O286        O  0.12599230  0.72724758  0.80040511    -0.60000
H287        H  0.11779399  0.69918903  0.80553050     0.44030
H288        H  0.10309201  0.80204117  0.98020298     0.43980
C289        C  0.29075940  0.70467882  0.01410939    -0.05080
C290        C  0.26703410  0.70171614  0.05500073    -0.32510
C291        C  0.24521197  0.72106916  0.05436740     0.36740
C292        C  0.24610528  0.74270682  0.01185544    -0.05440
C293        C  0.26938537  0.74518619  0.97072640    -0.32410
C294        C  0.29201633  0.72675729  0.97188852     0.36650
H295        H  0.26569278  0.68459787  0.08756441     0.17010
O296        O  0.22208680  0.71764461  0.09464489    -0.59910
H297        H  0.27034546  0.76186888  0.93786399     0.17030
O298        O  0.31412355  0.72920460  0.93089481    -0.60000
H299        H  0.33887694  0.75485669  0.93421210     0.44030
H300        H  0.24026947  0.73741085  0.11921813     0.43980
C301        C  0.86017793  0.62688795  0.56503260    -0.05080
C302        C  0.86104123  0.65526609  0.59773449    -0.32510
C303        C  0.88988752  0.67208386  0.63536879     0.36740
C304        C  0.91818695  0.66023674  0.64097337    -0.05440
C305        C  0.91811062  0.63292597  0.60709946    -0.32410
C306        C  0.88954257  0.61638134  0.56929654     0.36650
H307        H  0.83845906  0.66342237  0.59519004     0.17010
O308        O  0.88865253  0.69819503  0.66824555    -0.59910
H309        H  0.94030961  0.62426152  0.60993706     0.17030
O310        O  0.89108865  0.59072618  0.53582512    -0.60000
H311        H  0.88395911  0.56654170  0.55523804     0.44030
H312        H  0.90280726  0.72405720  0.65120765     0.43980
C313        C  0.77230098  0.63026477  0.43022866    -0.05080
C314        C  0.80032343  0.65725992  0.39662058    -0.32510
C315        C  0.78956364  0.67613764  0.36046796     0.36740
C316        C  0.75018013  0.66787427  0.35739299    -0.05440
C317        C  0.72255169  0.64180690  0.39209259    -0.32410
C318        C  0.73341830  0.62340789  0.42853634     0.36650
H319        H  0.83031962  0.66270376  0.39730611     0.17010
O320        O  0.81707903  0.70047514  0.32629050    -0.59910
H321        H  0.69227984  0.63554161  0.39086861     0.17030
O322        O  0.70568985  0.59847316  0.46210525    -0.60000
H323        H  0.70945290  0.61477803  0.49218947     0.44030
H324        H  0.83170793  0.72640781  0.34313288     0.43980
C325        C  0.70645715  0.41810706  0.49528960    -0.05080
C326        C  0.71827252  0.43805277  0.54107587    -0.32510
C327        C  0.73910979  0.47924401  0.54258686     0.36740
C328        C  0.74872406  0.50110487  0.49755558    -0.05440
C329        C  0.73628631  0.48071508  0.45173890    -0.32410
C330        C  0.71499469  0.43958156  0.45049360     0.36650
H331        H  0.71103226  0.42159922  0.57580480     0.17010
O332        O  0.74816768  0.49780073  0.58826237    -0.59910
H333        H  0.74347482  0.49668350  0.41665966     0.17030
O334        O  0.70322882  0.42056652  0.40526801    -0.60000
H335        H  0.67623829  0.41612217  0.39966108     0.44030
H336        H  0.76817407  0.49248069  0.60350229     0.43980
C337        C  0.37044534  0.22732905  0.57090497    -0.05080
C338        C  0.38757686  0.23769396  0.61900498    -0.32510
C339        C  0.37168796  0.25065026  0.65602820     0.36740
C340        C  0.33707365  0.25184167  0.64633042    -0.05440
C341        C  0.31888193  0.24030922  0.59923398    -0.32410
C342        C  0.33552984  0.22856776  0.56132090     0.36650
H343        H  0.41375712  0.23614298  0.62798766     0.17010
O344        O  0.38973638  0.26130953  0.70208318    -0.59910
H345        H  0.29257975  0.24191450  0.59119179     0.17030
O346        O  0.31902298  0.22109892  0.51430327    -0.60000
H347        H  0.29352487  0.19613885  0.51733403     0.44030
H348        H  0.41075019  0.28918736  0.69842436     0.43980
C349        C  0.33129204  0.08380027  0.35125450    -0.05080
C350        C  0.31522707  0.07799855  0.39940855    -0.32510
C351        C  0.33293018  0.10757490  0.43596713     0.36740
C352        C  0.36677741  0.14387402  0.42396285    -0.05440
C353        C  0.38134733  0.14989813  0.37470075    -0.32410
C354        C  0.36440646  0.12002494  0.33894252     0.36650
H355        H  0.29003095  0.04986314  0.40936091     0.17010
O356        O  0.31873026  0.09957364  0.48399559    -0.59910
H357        H  0.40656219  0.17775496  0.36395946     0.17030
O358        O  0.38015937  0.12662337  0.29171068    -0.60000
H359        H  0.40211623  0.12098054  0.29401702     0.44030
H360        H  0.29304226  0.09881290  0.48264512     0.43980
C361        C  0.49512684  0.24829087  0.49361760    -0.05080
C362        C  0.51518236  0.28129764  0.46279551    -0.32510
C363        C  0.55653269  0.30249873  0.46181352     0.36740
C364        C  0.57838137  0.29071769  0.49230961    -0.05440
C365        C  0.55786891  0.25722600  0.52276618    -0.32410
C366        C  0.51659652  0.23592886  0.52320407     0.36650
H367        H  0.49869453  0.29054103  0.43926412     0.17010
O368        O  0.57523484  0.33344064  0.42917507    -0.59910
H369        H  0.57386515  0.24771809  0.54677561     0.17030
O370        O  0.49744245  0.20340116  0.55324602    -0.60000
H371        H  0.49272236  0.18091939  0.53169002     0.44030
H372        H  0.57059610  0.35433106  0.44240895     0.43980
C373        C  0.62635217  0.85796448  0.56513273    -0.05080
C374        C  0.61126896  0.88330737  0.57189396    -0.32510
C375        C  0.62694071  0.91284744  0.60824475     0.36740
C376        C  0.65887451  0.91807579  0.63857434    -0.05440
C377        C  0.67483621  0.89349598  0.63085734    -0.32410
C378        C  0.65879495  0.86357025  0.59458358     0.36650
H379        H  0.58691046  0.88007735  0.54895172     0.17010
O380        O  0.61126580  0.93701392  0.61292127    -0.59910
H381        H  0.69912125  0.89672018  0.65392695     0.17030
O382        O  0.67344899  0.83850999  0.59036582    -0.60000
H383        H  0.69905996  0.85381438  0.57289239     0.44030
H384        H  0.58704997  0.92192199  0.63320979     0.43980
C385        C  0.63243898  0.77852241  0.42067919    -0.05080
C386        C  0.61832317  0.77033340  0.37108139    -0.32510
C387        C  0.63621602  0.75849553  0.33543835     0.36740
C388        C  0.66956015  0.75583902  0.34847411    -0.05440
C389        C  0.68507482  0.76574659  0.39712326    -0.32410
C390        C  0.66658973  0.77676860  0.43338312     0.36650
H391        H  0.59276259  0.77238618  0.36004881     0.17010
O392        O  0.62116410  0.74994097  0.28765024    -0.59910
H393        H  0.71046173  0.76320378  0.40762209     0.17030
O394        O  0.68033198  0.78284352  0.48179922    -0.60000
H395        H  0.70514702  0.80862286  0.48149693     0.44030
H396        H  0.59946049  0.72219446  0.28886160     0.43980
C397        C  0.41937325  0.70612562  0.48629143    -0.05080
C398        C  0.44052181  0.74197118  0.46036621    -0.32510
C399        C  0.48180194  0.76375887  0.46252112     0.36740
C400        C  0.50271314  0.74951837  0.48993483    -0.05440
C401        C  0.48206411  0.71370918  0.51529378    -0.32410
C402        C  0.44073492  0.69208152  0.51393704     0.36650
H403        H  0.42505146  0.75328646  0.43847686     0.17010
O404        O  0.50153860  0.79881886  0.43736984    -0.59910
H405        H  0.49804823  0.70282092  0.53696496     0.17030
O406        O  0.42152568  0.65857310  0.54232680    -0.60000
H407        H  0.42609176  0.63885341  0.52517754     0.44030
H408        H  0.50485929  0.81907714  0.46207944     0.43980
C409        C  0.25353775  0.91597951  0.35970280    -0.05080
C410        C  0.21339745  0.88760910  0.36457264    -0.32510
C411        C  0.20098459  0.85742722  0.40020369     0.36740
C412        C  0.22892095  0.85544233  0.43176557    -0.05440
C413        C  0.26873996  0.88468537  0.42813652    -0.32410
C414        C  0.28117322  0.91457654  0.39249681     0.36650
H415        H  0.19171611  0.88797535  0.33956078     0.17010
O416        O  0.16198353  0.82862194  0.40158202    -0.59910
H417        H  0.29050977  0.88411473  0.45280016     0.17030
O418        O  0.32040600  0.94273103  0.39074214    -0.60000
H419        H  0.33331337  0.93040418  0.37223566     0.44030
H420        H  0.14818665  0.84091877  0.41801229     0.43980
C421        C  0.14315616  0.76664692  0.56976185    -0.05080
C422        C  0.11556252  0.72642012  0.57406879    -0.32510
C423        C  0.08580813  0.71272730  0.61006979     0.36740
C424        C  0.08288601  0.73948027  0.64240417    -0.05440
C425        C  0.10969700  0.77987692  0.63704222    -0.32410
C426        C  0.13973858  0.79354961  0.60116385     0.36650
H427        H  0.11730880  0.70537852  0.54962155     0.17010
O428        O  0.05917855  0.67318347  0.61245929    -0.59910
H429        H  0.10815468  0.80089375  0.66173712     0.17030
O430        O  0.16708241  0.83291073  0.59931703    -0.60000
H431        H  0.15332907  0.84540408  0.58300352     0.44030
H432        H  0.07276651  0.66171902  0.63156626     0.43980
C433        C  0.29172680  0.70738046  0.49906967    -0.05080
C434        C  0.30768367  0.74357135  0.52451952    -0.32510
C435        C  0.28804924  0.76511341  0.52454907     0.36740
C436        C  0.25150473  0.75019377  0.50001842    -0.05440
C437        C  0.23538694  0.71430398  0.47468093    -0.32410
C438        C  0.25524797  0.69303452  0.47362102     0.36650
H439        H  0.33536790  0.75518859  0.54468638     0.17010
O440        O  0.30438087  0.80033641  0.54947508    -0.59910
H441        H  0.20748470  0.70297885  0.45502718     0.17030
O442        O  0.23983544  0.65942920  0.44523359    -0.60000
H443        H  0.21549258  0.63999487  0.46277938     0.44030
H444        H  0.32026640  0.82047268  0.52401278     0.43980
C445        C  0.85758178  0.62669165  0.92912168    -0.05080
C446        C  0.84827033  0.61602048  0.87856313    -0.32510
C447        C  0.87731283  0.63261959  0.84170331     0.36740
C448        C  0.91629777  0.66016842  0.85514952    -0.05440
C449        C  0.92566848  0.67169757  0.90531670    -0.32410
C450        C  0.89653482  0.65512599  0.94236450     0.36650
H451        H  0.81839968  0.59441471  0.86773634     0.17010
O452        O  0.86751983  0.62120227  0.79272504    -0.59910
H453        H  0.95580237  0.69269460  0.91592043     0.17030
O454        O  0.90688547  0.66491072  0.99162751    -0.60000
H455        H  0.90893548  0.69090630  0.99601884     0.44030
H456        H  0.86229102  0.64119155  0.77753410     0.43980
C457        C  0.77521218  0.62942761  0.07116383    -0.05080
C458        C  0.80351870  0.65909222  0.10221603    -0.32510
C459        C  0.79222079  0.67756786  0.13809401     0.36740
C460        C  0.75211341  0.66651803  0.14303269    -0.05440
C461        C  0.72417050  0.63780140  0.11073684    -0.32410
C462        C  0.73544403  0.61963442  0.07483530     0.36650
H463        H  0.83424296  0.66702343  0.09975857     0.17010
O464        O  0.82039398  0.70536334  0.16909073    -0.59910
H465        H  0.69330985  0.62938999  0.11321612     0.17030
O466        O  0.70724429  0.59215788  0.04354015    -0.60000
H467        H  0.70839235  0.60678615  0.01268998     0.44030
H468        H  0.82091964  0.69065280  0.19903481     0.43980
C469        C  0.70943650  0.41892046  0.00572077    -0.05080
C470        C  0.74354450  0.43978211  0.03548704    -0.32510
C471        C  0.76537453  0.48086494  0.03450870     0.36740
C472        C  0.75302263  0.50182011  0.00403689    -0.05440
C473        C  0.71930904  0.48139419  0.97399281    -0.32410
C474        C  0.69748016  0.44019704  0.97457879     0.36650
H475        H  0.75315370  0.42418371  0.05999361     0.17010
O476        O  0.79848189  0.50035510  0.06393684    -0.59910
H477        H  0.71000382  0.49746448  0.94986012     0.17030
O478        O  0.66575208  0.42102261  0.94282047    -0.60000
H479        H  0.64524631  0.42629414  0.95611400     0.44030
H480        H  0.82066506  0.50429689  0.04224569     0.43980
C481        C  0.85348010  0.22457997  0.07142960    -0.05080
C482        C  0.88125053  0.26463271  0.07727594    -0.32510
C483        C  0.91164795  0.27730993  0.11256479     0.36740
C484        C  0.91523573  0.24970755  0.14265361    -0.05440
C485        C  0.88838075  0.20944815  0.13549561    -0.32410
C486        C  0.85762479  0.19678324  0.10027480     0.36650
H487        H  0.87910041  0.28640937  0.05466686     0.17010
O488        O  0.93811277  0.31681103  0.11659725    -0.59910
H489        H  0.89041365  0.18773074  0.15834976     0.17030
O490        O  0.83037250  0.15747644  0.09669477    -0.60000
H491        H  0.84388497  0.14568991  0.07837630     0.44030
H492        H  0.92469711  0.32752605  0.13726706     0.43980
C493        C  0.76470703  0.14130772  0.93079756    -0.05080
C494        C  0.79275874  0.13970661  0.89980874    -0.32510
C495        C  0.78110966  0.11065296  0.86275093     0.36740
C496        C  0.74076955  0.08279311  0.85593856    -0.05440
C497        C  0.71295439  0.08386375  0.88788512    -0.32410
C498        C  0.72458228  0.11262328  0.92508034     0.36650
H499        H  0.82371705  0.16164914  0.90349872     0.17010
O500        O  0.80917277  0.11105156  0.83184685    -0.59910
H501        H  0.68191101  0.06216687  0.88420377     0.17030
O502        O  0.69668513  0.11164473  0.95692094    -0.60000
H503        H  0.68064853  0.11952289  0.93632635     0.44030
H504        H  0.82004269  0.09673212  0.85049106     0.43980
C505        C  0.74750638  0.24787577  0.00650171    -0.05080
C506        C  0.72836171  0.24832458  0.05061026    -0.32510
C507        C  0.70854266  0.26959820  0.05299531     0.36740
C508        C  0.70814949  0.29119541  0.01113203    -0.05440
C509        C  0.72783337  0.29131828  0.96733757    -0.32410
C510        C  0.74707341  0.26948954  0.96462313     0.36650
H511        H  0.72851440  0.23183287  0.08309687     0.17010
O512        O  0.68971341  0.26920050  0.09636300    -0.59910
H513        H  0.72780815  0.30797735  0.93496358     0.17030
O514        O  0.76657810  0.27054345  0.92158356    -0.60000
H515        H  0.74574301  0.25228242  0.89808681     0.44030
H516        H  0.70924990  0.29263952  0.11540070     0.43980
C517        C  0.85215021  0.22495997  0.42465936    -0.05080
C518        C  0.88571119  0.22205387  0.43647218    -0.32510
C519        C  0.91569909  0.23199971  0.40108774     0.36740
C520        C  0.91292021  0.24610868  0.35370398    -0.05440
C521        C  0.87922551  0.24805018  0.34133404    -0.32410
C522        C  0.84871922  0.23703509  0.37584648     0.36650
H523        H  0.88918729  0.21290083  0.47352333     0.17010
O524        O  0.94851049  0.22991863  0.41409080    -0.59910
H525        H  0.87639171  0.25792751  0.30440365     0.17030
O526        O  0.81489353  0.23648207  0.36072114    -0.60000
H527        H  0.82282881  0.26426369  0.35369346     0.44030
H528        H  0.94205047  0.20287457  0.40507488     0.43980
C529        C  0.76625150  0.14197662  0.56612868    -0.05080
C530        C  0.78690422  0.14985458  0.61166143    -0.32510
C531        C  0.77467910  0.12089553  0.64883032     0.36500
C532        C  0.74110058  0.08376709  0.64084015    -0.05440
C533        C  0.72063419  0.07579726  0.59512815    -0.32410
C534        C  0.73330160  0.10453126  0.55762596     0.36650
H535        H  0.81202109  0.17879300  0.61875470     0.17010
O536        O  0.79422740  0.12985479  0.69392926    -0.59910
H537        H  0.69484629  0.04720997  0.58853077     0.17030
O538        O  0.71286752  0.09608997  0.51323641    -0.60000
H539        H  0.72680110  0.08728699  0.49037665     0.44030
H540        H  0.81584177  0.12396255  0.68942970     0.43980
C541        C  0.74849297  0.25028123  0.49593588    -0.05080
C542        C  0.73325809  0.25637557  0.54059156    -0.32510
C543        C  0.71194244  0.27624016  0.54029429     0.36740
C544        C  0.70650146  0.29148692  0.49528973    -0.05440
C545        C  0.72150185  0.28570927  0.45073083    -0.32410
C546        C  0.74202068  0.26501619  0.45056225     0.36650
H547        H  0.73796777  0.24588015  0.57602922     0.17010
O548        O  0.69703764  0.28117258  0.58432175    -0.59910
H549        H  0.71670092  0.29674301  0.41573664     0.17030
O550        O  0.75350772  0.25740269  0.40547156    -0.60000
H551        H  0.77428813  0.28330788  0.39276753     0.44030
H552        H  0.66992997  0.25822562  0.58646381     0.43980
C553        C  0.14453530  0.36626075  0.07512185    -0.05080
C554        C  0.14957312  0.38174294  0.12377258    -0.32510
C555        C  0.11974411  0.36410569  0.15934261     0.36740
C556        C  0.08467909  0.32920512  0.14777557    -0.05440
C557        C  0.07997542  0.31231808  0.10021708    -0.32410
C558        C  0.10940635  0.33082128  0.06364759     0.36650
H559        H  0.17659358  0.40819079  0.13423176     0.17010
O560        O  0.12532045  0.38105433  0.20572773    -0.59910
H561        H  0.05271772  0.28578179  0.09066152     0.17030
O562        O  0.10229409  0.31560592  0.01604952    -0.60000
H563        H  0.10364565  0.29113647  0.01849831     0.44030
H564        H  0.11830886  0.40189096  0.20170705     0.43980
C565        C  0.23159551  0.37144122  0.93329155    -0.05080
C566        C  0.20347179  0.34135732  0.90255784    -0.32510
C567        C  0.21511034  0.32405732  0.86553830     0.36740
C568        C  0.25548915  0.33708397  0.85854431    -0.05440
C569        C  0.28341904  0.36633948  0.89031658    -0.32410
C570        C  0.27179694  0.38338769  0.92750008     0.36650
H571        H  0.17245180  0.33198791  0.90635157     0.17010
O572        O  0.18698407  0.29601339  0.83474487    -0.59910
H573        H  0.31451066  0.37601674  0.88648658     0.17030
O574        O  0.29976512  0.41075908  0.95918063    -0.60000
H575        H  0.31545278  0.43453496  0.93840959     0.44030
H576        H  0.17646628  0.27098862  0.85355293     0.43980
C577        C  0.29143560  0.57805841  0.01241148    -0.05080
C578        C  0.25633601  0.55853354  0.98397888    -0.32510
C579        C  0.23448449  0.51746149  0.98166739     0.36740
C580        C  0.24804929  0.49512272  0.00676890    -0.05440
C581        C  0.28282201  0.51412471  0.03520051    -0.32410
C582        C  0.30441715  0.55525275  0.03849556     0.36650
H583        H  0.24585609  0.57513588  0.96302903     0.17010
O584        O  0.20028661  0.49939947  0.95402362    -0.59910
H585        H  0.29302348  0.49693647  0.05539333     0.17030
O586        O  0.33687349  0.57267008  0.06938808    -0.60000
H587        H  0.35692153  0.56794223  0.05335826     0.44030
H588        H  0.17905135  0.49477673  0.97789020     0.43980
C589        C  0.37237907  0.23011343  0.93387555    -0.05080
C590        C  0.38225196  0.26963962  0.93137491    -0.32510
C591        C  0.36541668  0.28236289  0.89508653     0.36740
C592        C  0.33820402  0.25542923  0.86014044    -0.05440
C593        C  0.32734327  0.21562087  0.86347657    -0.32410
C594        C  0.34449544  0.20292808  0.89970916     0.36650
H595        H  0.40326010  0.29083785  0.95771760     0.17010
O596        O  0.37582962  0.32127931  0.89419616    -0.59910
H597        H  0.30656108  0.19454425  0.83685680     0.17030
O598        O  0.33482642  0.16423115  0.90024579    -0.60000
H599        H  0.35509112  0.16310828  0.87932109     0.44030
H600        H  0.35516993  0.32277100  0.91379251     0.43980
C601        C  0.36911374  0.14047930  0.07071216    -0.05080
C602        C  0.33562244  0.13501146  0.09679897    -0.32510
C603        C  0.31648464  0.10414083  0.13123003     0.36740
C604        C  0.33116873  0.07849281  0.14045119    -0.05440
C605        C  0.36334703  0.08285926  0.11232631    -0.32410
C606        C  0.38218602  0.11333840  0.07773168     0.36650
H607        H  0.32504188  0.15550338  0.09174532     0.17010
O608        O  0.28495443  0.10076488  0.15753571    -0.59910
H609        H  0.37440977  0.06276103  0.11750114     0.17030
O610        O  0.41273630  0.11577540  0.04991020    -0.60000
H611        H  0.43471582  0.12298083  0.07397098     0.44030
H612        H  0.26161762  0.08469110  0.13594377     0.43980
C613        C  0.49732772  0.25149912  0.01190392    -0.05080
C614        C  0.51774189  0.23762925  0.98355359    -0.32510
C615        C  0.55901937  0.25718557  0.98425745     0.36740
C616        C  0.58056311  0.29115319  0.01415397    -0.05440
C617        C  0.55973931  0.30489154  0.04259011    -0.32410
C618        C  0.51842942  0.28547678  0.04122995     0.36650
H619        H  0.50156382  0.21173798  0.96029131     0.17010
O620        O  0.57801444  0.24418629  0.95337655    -0.59910
H621        H  0.57550359  0.33071006  0.06603117     0.17030
O622        O  0.49890391  0.29962331  0.06906199    -0.60000
H623        H  0.49514834  0.31739421  0.04617906     0.44030
H624        H  0.57294927  0.21881952  0.96784697     0.43980
C625        C  0.14725078  0.36535561  0.42272410    -0.05080
C626        C  0.11115910  0.33250588  0.43717419    -0.32510
C627        C  0.08037354  0.31291382  0.40247460     0.36740
C628        C  0.08516200  0.32666897  0.35301348    -0.05440
C629        C  0.12143727  0.35826881  0.33800997    -0.32410
C630        C  0.15259086  0.37729677  0.37210455     0.36650
H631        H  0.10630649  0.32277848  0.47580958     0.17010
O632        O  0.04501119  0.28202466  0.41795733    -0.59910
H633        H  0.12555953  0.36847108  0.29968205     0.17030
O634        O  0.18848929  0.40665733  0.35530919    -0.60000
H635        H  0.18408628  0.42828801  0.34435734     0.44030
H636        H  0.04697084  0.25822705  0.41160221     0.43980
C637        C  0.25343140  0.33469347  0.64311072    -0.05080
C638        C  0.21525140  0.32932505  0.64610684    -0.32510
C639        C  0.20207438  0.34632789  0.61036244     0.36740
C640        C  0.22719859  0.36877371  0.57118344    -0.05440
C641        C  0.26484033  0.37314144  0.56738451    -0.32410
C642        C  0.27795003  0.35607839  0.60280734     0.36650
H643        H  0.19618328  0.31309158  0.67707436     0.17010
O644        O  0.16557741  0.34270935  0.61548350    -0.59910
H645        H  0.28418760  0.39009142  0.53696574     0.17030
O646        O  0.31481904  0.36053284  0.59777645    -0.60000
H647        H  0.31046199  0.33630772  0.58062226     0.44030
H648        H  0.14723619  0.31841809  0.59694732     0.43980
C649        C  0.29022857  0.57866413  0.49340597    -0.05080
C650        C  0.30912230  0.55830390  0.51026175    -0.32510
C651        C  0.28962561  0.51715730  0.51075728     0.36740
C652        C  0.24940529  0.49494569  0.49683101    -0.05440
C653        C  0.23037148  0.51525037  0.48042444    -0.32410
C654        C  0.25049000  0.55636580  0.47732454     0.36650
H655        H  0.33946868  0.57415846  0.52303816     0.17010
O656        O  0.31099851  0.49911830  0.52187352    -0.59910
H657        H  0.19959980  0.49933599  0.46940468     0.17030
O658        O  0.23162583  0.57411936  0.45553161    -0.60000
H659        H  0.20970377  0.56908520  0.47844457     0.44030
H660        H  0.31859879  0.50506493  0.55767324     0.43980
loop_ 
_geom_bond_atom_site_label_1 
_geom_bond_atom_site_label_2 
_geom_bond_distance 
_geom_bond_site_symmetry_2 
_ccdc_geom_bond_type 
C1            C2   1.399       .  A
C1            C6   1.398       .  A
C1          C640   1.470       .  S
C2            C3   1.405       .  A
C2            H7   1.082       .  S
C3            C4   1.408       .  A
C3          C652   1.498       .  S
C4            C5   1.409       .  A
C4            H8   1.080       .  S
C5            C6   1.403       .  A
C5          C625   1.487       .  S
C6            H9   1.084       .  S
C10          C11   1.406   1_556  A
C10          C15   1.405       .  A
C10         C589   1.481       .  S
C11          C12   1.406       .  A
C11          H16   1.083   1_554  S
C12          C13   1.406       .  A
C12         C601   1.484       .  S
C13          C14   1.397       .  A
C13          H17   1.083       .  S
C14          C15   1.397   1_554  A
C14         C613   1.471       .  S
C15          H18   1.084       .  S
C19          C20   1.404       .  A
C19          C24   1.407   1_556  A
C19         C565   1.482       .  S
C20          C21   1.396   1_556  A
C20          H25   1.083       .  S
C21          C22   1.397       .  A
C21         C580   1.473       .  S
C22          C23   1.409       .  A
C22          H26   1.084       .  S
C23          C24   1.408       .  A
C23         C553   1.491       .  S
C24          H27   1.082       .  S
C28          C29   1.402       .  A
C28          C33   1.403       .  A
C28         C529   1.475       .  S
C29          C30   1.406       .  A
C29          H34   1.083       .  S
C30          C31   1.406       .  A
C30         C541   1.496       .  S
C31          C32   1.408       .  A
C31          H35   1.081       .  S
C32          C33   1.407       .  A
C32         C517   1.494       .  S
C33          H36   1.083       .  S
C37          C38   1.405       .  A
C37          C42   1.407   1_556  A
C37         C493   1.484       .  S
C38          C39   1.400   1_556  A
C38          H43   1.083       .  S
C39          C40   1.399       .  A
C39         C505   1.478       .  S
C40          C41   1.405       .  A
C40          H44   1.084       .  S
C41          C42   1.407       .  A
C41         C481   1.485       .  S
C42          H45   1.083   1_554  S
C46          C47   1.400       .  A
C46          C51   1.400       .  A
C46         C508   1.476       .  S
C47          C48   1.405       .  A
C47          H52   1.083       .  S
C48          C49   1.407       .  A
C48         C616   1.489       .  S
C49          C50   1.407       .  A
C49          H53   1.082       .  S
C50          C51   1.406       .  A
C50         C469   1.488       .  S
C51          H54   1.084       .  S
C55          C56   1.405       .  A
C55          C60   1.406       .  A
C55         C457   1.482       .  S
C56          C57   1.398       .  A
C56          H61   1.084       .  S
C57          C58   1.397   1_554  A
C57         C472   1.471       .  S
C58          C59   1.404       .  A
C58          H62   1.084       .  S
C59          C60   1.407   1_556  A
C59         C445   1.480       .  S
C60          H63   1.083       .  S
O64         Ni72   1.911   1_655  S
O64          C74   1.280       .  A
O65         Ni72   1.906       .  S
O65          C75   1.279       .  A
O66         Ni72   1.907   1_655  S
O66          C76   1.280       .  A
O67         Ni72   1.907       .  S
O67          C77   1.279       .  A
O68         Ni73   1.923   1_455  S
O68          C77   1.281       .  A
O69         Ni73   1.925       .  S
O69          C76   1.283       .  A
O70         Ni73   1.928   1_455  S
O70          C75   1.283       .  A
O71         Ni73   1.925       .  S
O71          C74   1.282       .  A
Ni72        Ni73   2.391   1_455  S
C74         C520   1.471       .  S
C75         C556   1.471       .  S
C76         C484   1.483       .  S
C77         C628   1.466       .  S
C78          C79   1.404       .  A
C78          C83   1.406       .  A
C78         C421   1.482       .  S
C79          C80   1.397       .  A
C79          H84   1.084       .  S
C80          C81   1.398       .  A
C80         C436   1.472       .  S
C81          C82   1.406       .  A
C81          H85   1.084       .  S
C82          C83   1.406       .  A
C82         C412   1.483       .  S
C83          H86   1.082       .  S
C87          C88   1.405       .  A
C87          C92   1.406       .  A
C87         C397   1.493       .  S
C88          C89   1.408       .  A
C88          H93   1.081       .  S
C89          C90   1.407       .  A
C89         C649   1.500       .  S
C90          C91   1.405       .  A
C90          H94   1.080       .  S
C91          C92   1.406       .  A
C91         C433   1.493       .  S
C92          H95   1.082       .  S
C96          C97   1.407       .  A
C96         C101   1.408       .  A
C96         C385   1.488       .  S
C97          C98   1.397       .  A
C97         H102   1.084       .  S
C98          C99   1.398       .  A
C98         C400   1.473       .  S
C99         C100   1.407       .  A
C99         H103   1.084       .  S
C100        C101   1.407       .  A
C100        C373   1.487       .  S
C101        H104   1.082       .  S
C105        C106   1.407       .  A
C105        C110   1.411       .  A
C105        C337   1.493       .  S
C106        C107   1.396       .  A
C106        H111   1.084       .  S
C107        C108   1.395       .  A
C107        C361   1.471       .  S
C108        C109   1.407       .  A
C108        H112   1.084       .  S
C109        C110   1.410       .  A
C109        C352   1.491       .  S
C110        H113   1.079       .  S
C114        C115   1.401       .  A
C114        C119   1.401       .  A
C114        C325   1.472       .  S
C115        C116   1.401       .  A
C115        H120   1.084       .  S
C116        C117   1.402       .  A
C116        C544   1.474       .  S
C117        C118   1.408       .  A
C117        H121   1.084       .  S
C118        C119   1.407       .  A
C118        C364   1.489       .  S
C119        H122   1.083       .  S
C123        C124   1.403       .  A
C123        C128   1.406       .  A
C123        C313   1.482       .  S
C124        C125   1.403       .  A
C124        H129   1.084       .  S
C125        C126   1.404       .  A
C125        C301   1.481       .  S
C126        C127   1.403       .  A
C126        H130   1.082       .  S
C127        C128   1.405       .  A
C127        C328   1.491       .  S
C128        H131   1.083       .  S
C132        C133   1.408       .  A
C132        C137   1.409   1_556  A
C132        C280   1.491       .  S
C133        C134   1.399   1_556  A
C133        H138   1.083       .  S
C134        C135   1.397       .  A
C134        C292   1.475       .  S
C135        C136   1.403       .  A
C135        H139   1.084       .  S
C136        C137   1.405       .  A
C136        C265   1.482       .  S
C137        H140   1.082   1_554  S
C141        C142   1.401       .  A
C141        C146   1.400       .  A
C141        C289   1.476       .  S
C142        C143   1.404       .  A
C142        H147   1.084       .  S
C143        C144   1.408       .  A
C143        C256   1.489       .  S
C144        C145   1.409       .  A
C144        H148   1.080       .  S
C145        C146   1.406       .  A
C145        C577   1.493       .  S
C146        H149   1.084       .  S
C150        C151   1.403       .  A
C150        C155   1.406   1_554  A
C150        C241   1.479       .  S
C151        C152   1.398       .  A
C151        H156   1.084       .  S
C152        C153   1.398   1_554  A
C152        C253   1.473       .  S
C153        C154   1.408       .  A
C153        H157   1.082       .  S
C154        C155   1.410       .  A
C154        C229   1.493       .  S
C155        H158   1.083       .  S
O159       Ni167   1.915       .  S
O159        C169   1.280       .  A
O160       Ni167   1.917   1_545  S
O160        C170   1.280       .  A
O161       Ni167   1.905       .  S
O161        C171   1.279       .  A
O162       Ni167   1.913   1_545  S
O162        C172   1.281       .  A
O163       Ni168   1.921       .  S
O163        C172   1.282       .  A
O164       Ni168   1.930   1_565  S
O164        C171   1.284       .  A
O165       Ni168   1.921       .  S
O165        C170   1.281       .  A
O166       Ni168   1.922   1_565  S
O166        C169   1.281       .  A
Ni167      Ni168   2.389   1_565  S
C169        C232   1.471       .  S
C170        C532   1.471       .  S
C171        C376   1.485       .  S
C172        C496   1.481       .  S
O173       Ni181   1.923       .  S
O173        C183   1.281       .  A
O174       Ni181   1.924       .  S
O174        C184   1.282       .  A
O175       Ni181   1.930       .  S
O175        C185   1.284       .  A
O176       Ni181   1.924       .  S
O176        C186   1.282       .  A
O177       Ni182   1.911       .  S
O177        C186   1.280       .  A
O178       Ni182   1.905       .  S
O178        C185   1.279       .  A
O179       Ni182   1.909       .  S
O179        C184   1.281       .  A
O180       Ni182   1.909       .  S
O180        C183   1.279       .  A
Ni181      Ni182   2.389       .  S
C183        C388   1.468       .  S
C184        C460   1.479       .  S
C185        C244   1.478       .  S
C186        C316   1.479       .  S
O187       Ni195   1.908       .  S
O187        C197   1.280       .  A
O188       Ni195   1.909   1_545  S
O188        C198   1.279       .  A
O189       Ni195   1.906       .  S
O189        C199   1.279       .  A
O190       Ni195   1.901   1_545  S
O190        C200   1.279       .  A
O191       Ni196   1.929   1_545  S
O191        C200   1.284       .  A
O192       Ni196   1.926       .  S
O192        C199   1.283       .  A
O193       Ni196   1.923   1_545  S
O193        C198   1.281       .  A
O194       Ni196   1.923       .  S
O194        C197   1.282       .  A
Ni195      Ni196   2.387       .  S
C197        C268   1.482       .  S
C198        C349   1.468       .  S
C199        C409   1.481       .  S
C200        C604   1.481       .  S
O201       Ni209   1.917   1_655  S
O201        C211   1.280       .  A
O202       Ni209   1.922       .  S
O202        C212   1.283       .  A
O203       Ni209   1.923   1_655  S
O203        C213   1.282       .  A
O204       Ni209   1.919       .  S
O204        C214   1.281       .  A
O205       Ni210   1.912   1_455  S
O205        C214   1.280       .  A
O206       Ni210   1.908       .  S
O206        C213   1.280       .  A
O207       Ni210   1.907   1_455  S
O207        C212   1.280       .  A
O208       Ni210   1.915       .  S
O208        C211   1.280       .  A
Ni209      Ni210   2.391   1_455  S
C211        C448   1.465       .  S
C212        C424   1.479       .  S
C213        C304   1.477       .  S
C214        C277   1.468       .  S
O215       Ni223   1.924       .  S
O215        C225   1.283       .  A
O216       Ni223   1.918       .  S
O216        C226   1.281       .  A
O217       Ni223   1.922       .  S
O217        C227   1.281       .  A
O218       Ni223   1.920       .  S
O218        C228   1.282       .  A
O219       Ni224   1.911       .  S
O219        C228   1.281       .  A
O220       Ni224   1.911       .  S
O220        C227   1.279       .  A
O221       Ni224   1.909       .  S
O221        C226   1.280       .  A
O222       Ni224   1.904       .  S
O222        C225   1.279       .  A
Ni223      Ni224   2.390       .  S
C225        C592   1.476       .  S
C226        C637   1.470       .  S
C227        C340   1.469       .  S
C228        C568   1.479       .  S
C229        C230   1.409       .  A
C229        C234   1.415       .  A
C230        C231   1.403       .  A
C230        H235   1.083       .  S
C231        C232   1.406       .  A
C231        O236   1.371       .  S
C232        C233   1.399       .  A
C233        C234   1.400       .  A
C233        H237   1.084       .  S
C234        O238   1.373       .  S
O236        H240   0.992       .  S
O238        H239   0.992       .  S
C241        C242   1.401       .  A
C241        C246   1.409       .  A
C242        C243   1.397       .  A
C242        H247   1.084       .  S
C243        C244   1.410       .  A
C243        O248   1.372       .  S
C244        C245   1.405       .  A
C245        C246   1.404       .  A
C245        H249   1.083       .  S
C246        O250   1.372       .  S
O248        H252   0.992       .  S
O250        H251   0.992       .  S
C253        C254   1.401   1_554  A
C253        C258   1.403       .  A
C254        C255   1.402       .  A
C254        H259   1.084       .  S
C255        C256   1.412   1_556  A
C255        O260   1.372       .  S
C256        C257   1.408       .  A
C257        C258   1.400       .  A
C257        H261   1.083       .  S
C258        O262   1.371       .  S
O260        H264   0.992       .  S
O262        H263   0.992       .  S
C265        C266   1.402       .  A
C265        C270   1.409       .  A
C266        C267   1.396       .  A
C266        H271   1.084       .  S
C267        C268   1.412       .  A
C267        O272   1.372       .  S
C268        C269   1.406       .  A
C269        C270   1.403       .  A
C269        H273   1.083       .  S
C270        O274   1.372       .  S
O272        H276   0.992       .  S
O274        H275   0.992       .  S
C277        C278   1.400       .  A
C277        C282   1.404       .  A
C278        C279   1.403       .  A
C278        H283   1.084       .  S
C279        C280   1.415       .  A
C279        O284   1.372       .  S
C280        C281   1.408       .  A
C281        C282   1.397       .  A
C281        H285   1.083       .  S
C282        O286   1.372       .  S
O284        H288   0.992       .  S
O286        H287   0.992       .  S
C289        C290   1.403       .  A
C289        C294   1.407   1_554  A
C290        C291   1.401       .  A
C290        H295   1.084       .  S
C291        C292   1.407       .  A
C291        O296   1.372       .  S
C292        C293   1.402   1_554  A
C293        C294   1.399       .  A
C293        H297   1.084       .  S
C294        O298   1.372       .  S
O296        H300   0.992       .  S
O298        H299   0.992       .  S
C301        C302   1.405       .  A
C301        C306   1.408       .  A
C302        C303   1.402       .  A
C302        H307   1.084       .  S
C303        C304   1.409       .  A
C303        O308   1.371       .  S
C304        C305   1.404       .  A
C305        C306   1.398       .  A
C305        H309   1.084       .  S
C306        O310   1.373       .  S
O308        H312   0.992       .  S
O310        H311   0.992       .  S
C313        C314   1.405       .  A
C313        C318   1.408       .  A
C314        C315   1.403       .  A
C314        H319   1.084       .  S
C315        C316   1.410       .  A
C315        O320   1.372       .  S
C316        C317   1.405       .  A
C317        C318   1.398       .  A
C317        H321   1.084       .  S
C318        O322   1.372       .  S
O320        H324   0.992       .  S
O322        H323   0.992       .  S
C325        C326   1.399       .  A
C325        C330   1.404       .  A
C326        C327   1.402       .  A
C326        H331   1.084       .  S
C327        C328   1.415       .  A
C327        O332   1.373       .  S
C328        C329   1.408       .  A
C329        C330   1.400       .  A
C329        H333   1.083       .  S
C330        O334   1.371       .  S
O332        H336   0.992       .  S
O334        H335   0.992       .  S
C337        C338   1.408       .  A
C337        C342   1.415       .  A
C338        C339   1.396       .  A
C338        H343   1.083       .  S
C339        C340   1.403       .  A
C339        O344   1.372       .  S
C340        C341   1.401       .  A
C341        C342   1.405       .  A
C341        H345   1.084       .  S
C342        O346   1.372       .  S
O344        H348   0.992       .  S
O346        H347   0.992       .  S
C349        C350   1.401       .  A
C349        C354   1.403       .  A
C350        C351   1.405       .  A
C350        H355   1.084       .  S
C351        C352   1.415       .  A
C351        O356   1.372       .  S
C352        C353   1.408       .  A
C353        C354   1.395       .  A
C353        H357   1.083       .  S
C354        O358   1.372       .  S
O356        H360   0.992       .  S
O358        H359   0.992       .  S
C361        C362   1.399       .  A
C361        C366   1.403       .  A
C362        C363   1.402       .  A
C362        H367   1.084       .  S
C363        C364   1.414       .  A
C363        O368   1.373       .  S
C364        C365   1.408       .  A
C365        C366   1.399       .  A
C365        H369   1.083       .  S
C366        O370   1.372       .  S
O368        H372   0.992       .  S
O370        H371   0.992       .  S
C373        C374   1.403       .  A
C373        C378   1.411       .  A
C374        C375   1.397       .  A
C374        H379   1.084       .  S
C375        C376   1.412       .  A
C375        O380   1.372       .  S
C376        C377   1.406       .  A
C377        C378   1.405       .  A
C377        H381   1.083       .  S
C378        O382   1.372       .  S
O380        H384   0.992       .  S
O382        H383   0.992       .  S
C385        C386   1.406       .  A
C385        C390   1.413       .  A
C386        C387   1.396       .  A
C386        H391   1.083       .  S
C387        C388   1.404       .  A
C387        O392   1.372       .  S
C388        C389   1.401       .  A
C389        C390   1.404       .  A
C389        H393   1.084       .  S
C390        O394   1.372       .  S
O392        H396   0.992       .  S
O394        H395   0.992       .  S
C397        C398   1.408       .  A
C397        C402   1.416       .  A
C398        C399   1.400       .  A
C398        H403   1.083       .  S
C399        C400   1.405       .  A
C399        O404   1.372       .  S
C400        C401   1.398       .  A
C401        C402   1.401       .  A
C401        H405   1.084       .  S
C402        O406   1.372       .  S
O404        H408   0.992       .  S
O406        H407   0.992       .  S
C409        C410   1.405       .  A
C409        C414   1.411       .  A
C410        C411   1.404       .  A
C410        H415   1.083       .  S
C411        C412   1.411       .  A
C411        O416   1.372       .  S
C412        C413   1.402       .  A
C413        C414   1.396       .  A
C413        H417   1.084       .  S
C414        O418   1.372       .  S
O416        H420   0.992       .  S
O418        H419   0.992       .  S
C421        C422   1.403       .  A
C421        C426   1.409       .  A
C422        C423   1.397       .  A
C422        H427   1.084       .  S
C423        C424   1.411       .  A
C423        O428   1.372       .  S
C424        C425   1.405       .  A
C425        C426   1.402       .  A
C425        H429   1.083       .  S
C426        O430   1.372       .  S
O428        H432   0.992       .  S
O430        H431   0.992       .  S
C433        C434   1.409       .  A
C433        C438   1.416       .  A
C434        C435   1.401       .  A
C434        H439   1.083       .  S
C435        C436   1.404       .  A
C435        O440   1.371       .  S
C436        C437   1.398       .  A
C437        C438   1.400       .  A
C437        H441   1.084       .  S
C438        O442   1.373       .  S
O440        H444   0.992       .  S
O442        H443   0.992       .  S
C445        C446   1.405       .  A
C445        C450   1.410       .  A
C446        C447   1.397       .  A
C446        H451   1.084       .  S
C447        C448   1.404       .  A
C447        O452   1.372       .  S
C448        C449   1.401       .  A
C449        C450   1.403       .  A
C449        H453   1.084       .  S
C450        O454   1.372       .  S
O452        H456   0.992       .  S
O454        H455   0.992       .  S
C457        C458   1.405       .  A
C457        C462   1.409       .  A
C458        C459   1.404       .  A
C458        H463   1.084       .  S
C459        C460   1.411       .  A
C459        O464   1.372       .  S
C460        C461   1.404       .  A
C461        C462   1.395       .  A
C461        H465   1.084       .  S
C462        O466   1.372       .  S
O464        H468   0.992       .  S
O466        H467   0.992       .  S
C469        C470   1.408       .  A
C469        C474   1.413   1_554  A
C470        C471   1.398       .  A
C470        H475   1.083       .  S
C471        C472   1.403       .  A
C471        O476   1.372       .  S
C472        C473   1.400   1_554  A
C473        C474   1.402       .  A
C473        H477   1.084       .  S
C474        O478   1.372       .  S
O476        H480   0.992       .  S
O478        H479   0.992       .  S
C481        C482   1.403       .  A
C481        C486   1.410       .  A
C482        C483   1.396       .  A
C482        H487   1.084       .  S
C483        C484   1.411       .  A
C483        O488   1.372       .  S
C484        C485   1.406       .  A
C485        C486   1.404       .  A
C485        H489   1.083       .  S
C486        O490   1.372       .  S
O488        H492   0.992       .  S
O490        H491   0.992       .  S
C493        C494   1.405       .  A
C493        C498   1.409       .  A
C494        C495   1.403       .  A
C494        H499   1.083       .  S
C495        C496   1.411       .  A
C495        O500   1.371       .  S
C496        C497   1.404       .  A
C497        C498   1.398       .  A
C497        H501   1.084       .  S
C498        O502   1.373       .  S
O500        H504   0.992       .  S
O502        H503   0.992       .  S
C505        C506   1.404       .  A
C505        C510   1.408   1_554  A
C506        C507   1.400       .  A
C506        H511   1.084       .  S
C507        C508   1.407       .  A
C507        O512   1.371       .  S
C508        C509   1.402   1_554  A
C509        C510   1.400       .  A
C509        H513   1.084       .  S
C510        O514   1.372       .  S
O512        H516   0.992       .  S
O514        H515   0.992       .  S
C517        C518   1.410       .  A
C517        C522   1.415       .  A
C518        C519   1.405       .  A
C518        H523   1.083       .  S
C519        C520   1.406       .  A
C519        O524   1.371       .  S
C520        C521   1.398       .  A
C521        C522   1.398       .  A
C521        H525   1.084       .  S
C522        O526   1.373       .  S
O524        H528   0.992       .  S
O526        H527   0.992       .  S
C529        C530   1.403       .  A
C529        C534   1.406       .  A
C530        C531   1.401       .  A
C530        H535   1.084       .  S
C531        C532   1.407       .  A
C531        O536   1.372       .  S
C532        C533   1.403       .  A
C533        C534   1.401       .  A
C533        H537   1.084       .  S
C534        O538   1.371       .  S
O536        H540   0.991       .  S
O538        H539   0.992       .  S
C541        C542   1.409       .  A
C541        C546   1.417       .  A
C542        C543   1.401       .  A
C542        H547   1.083       .  S
C543        C544   1.404       .  A
C543        O548   1.371       .  S
C544        C545   1.398       .  A
C545        C546   1.402       .  A
C545        H549   1.084       .  S
C546        O550   1.372       .  S
O548        H552   0.992       .  S
O550        H551   0.992       .  S
C553        C554   1.406       .  A
C553        C558   1.415       .  A
C554        C555   1.394       .  A
C554        H559   1.083       .  S
C555        C556   1.404       .  A
C555        O560   1.371       .  S
C556        C557   1.402       .  A
C557        C558   1.406       .  A
C557        H561   1.084       .  S
C558        O562   1.372       .  S
O560        H564   0.992       .  S
O562        H563   0.992       .  S
C565        C566   1.405       .  A
C565        C570   1.409       .  A
C566        C567   1.402       .  A
C566        H571   1.084       .  S
C567        C568   1.410       .  A
C567        O572   1.371       .  S
C568        C569   1.404       .  A
C569        C570   1.398       .  A
C569        H573   1.084       .  S
C570        O574   1.373       .  S
O572        H576   0.992       .  S
O574        H575   0.992       .  S
C577        C578   1.410   1_554  A
C577        C582   1.414       .  A
C578        C579   1.399       .  A
C578        H583   1.083       .  S
C579        C580   1.402   1_556  A
C579        O584   1.371       .  S
C580        C581   1.400       .  A
C581        C582   1.402       .  A
C581        H585   1.084       .  S
C582        O586   1.372       .  S
O584        H588   0.992       .  S
O586        H587   0.992       .  S
C589        C590   1.402       .  A
C589        C594   1.411       .  A
C590        C591   1.395       .  A
C590        H595   1.084       .  S
C591        C592   1.410       .  A
C591        O596   1.372       .  S
C592        C593   1.404       .  A
C593        C594   1.401       .  A
C593        H597   1.083       .  S
C594        O598   1.372       .  S
O596        H600   0.992       .  S
O598        H599   0.992       .  S
C601        C602   1.406       .  A
C601        C606   1.408       .  A
C602        C603   1.403       .  A
C602        H607   1.083       .  S
C603        C604   1.410       .  A
C603        O608   1.371       .  S
C604        C605   1.405       .  A
C605        C606   1.396       .  A
C605        H609   1.084       .  S
C606        O610   1.373       .  S
O608        H612   0.992       .  S
O610        H611   0.992       .  S
C613        C614   1.398   1_554  A
C613        C618   1.404       .  A
C614        C615   1.399       .  A
C614        H619   1.084       .  S
C615        C616   1.414   1_556  A
C615        O620   1.373       .  S
C616        C617   1.408       .  A
C617        C618   1.401       .  A
C617        H621   1.083       .  S
C618        O622   1.371       .  S
O620        H624   0.992       .  S
O622        H623   0.992       .  S
C625        C626   1.410       .  A
C625        C630   1.411       .  A
C626        C627   1.402       .  A
C626        H631   1.083       .  S
C627        C628   1.403       .  A
C627        O632   1.371       .  S
C628        C629   1.398       .  A
C629        C630   1.397       .  A
C629        H633   1.081       .  S
C630        O634   1.373       .  S
O632        H636   0.992       .  S
O634        H635   0.992       .  S
C637        C638   1.404       .  A
C637        C642   1.408       .  A
C638        C639   1.401       .  A
C638        H643   1.084       .  S
C639        C640   1.406       .  A
C639        O644   1.371       .  S
C640        C641   1.400       .  A
C641        C642   1.395       .  A
C641        H645   1.084       .  S
C642        O646   1.372       .  S
O644        H648   0.991       .  S
O646        H647   0.992       .  S
C649        C650   1.408       .  A
C649        C654   1.415       .  A
C650        C651   1.401       .  A
C650        H655   1.082       .  S
C651        C652   1.413       .  A
C651        O656   1.373       .  S
C652        C653   1.406       .  A
C653        C654   1.401       .  A
C653        H657   1.082       .  S
C654        O658   1.373       .  S
O656        H660   0.992       .  S
O658        H659   0.992       .  S
