geometry optimzed in LAMMPS
_audit_creation_date              2020-12-01 
_audit_creation_method            'lammps2cif' 
_symmetry_space_group_name_H-M    'P1' 
_symmetry_Int_Tables_number       1 
_symmetry_cell_setting            triclinic 
loop_ 
_symmetry_equiv_pos_as_xyz 
  x,y,z 
_cell_length_a                    29.85127919 
_cell_length_b                    51.55344835144841 
_cell_length_c                    44.218037896384295 
_cell_angle_alpha                 89.88871454707552 
_cell_angle_beta                  90.67023782594417 
_cell_angle_gamma                 90.2331182193952 
loop_ 
_atom_site_label 
_atom_site_type_symbol 
_atom_site_fract_x 
_atom_site_fract_y 
_atom_site_fract_z 
_atom_site_charge 
C1          C  0.29863937  0.90635622  0.46364535     0.03400
C2          C  0.29671330  0.88192109  0.47787847    -0.12700
C3          C  0.96102767  0.88004659  0.50948496     0.00900
C4          C  0.96108171  0.90273313  0.52686495    -0.11300
C5          C  0.96409460  0.92723057  0.51327324     0.03400
C6          C  0.29933531  0.92887711  0.48157205    -0.10700
H7          H  0.29572581  0.86439528  0.46440546     0.09000
H8          H  0.95887031  0.90121790  0.55124167     0.06500
H9          H  0.30267086  0.94766609  0.47082761     0.06400
C10         C  0.29467409  0.71251905  0.62631275     0.03400
C11         C  0.25417531  0.70074616  0.63486060    -0.12700
C12         C  0.25408864  0.67753372  0.65150495     0.00900
C13         C  0.29508361  0.66596338  0.65933671    -0.11300
C14         C  0.00247998  0.67761683  0.65120577     0.03400
C15         C  0.00202434  0.70084158  0.63463795    -0.10700
H16         H  0.22266613  0.70964244  0.62837935     0.09000
H17         H  0.29531903  0.64804682  0.67218308     0.06500
H18         H  0.03335389  0.71006863  0.62858706     0.06400
O19         O  0.26650239  0.89448358  0.14733698    -0.57500
C20         C  0.06172269  0.90449409  0.15459985     0.75100
O21         O  0.32963507  0.97590442  0.16434164    -0.58700
C22         C  0.22912538  0.90397357  0.15468079     0.75100
C23         C  0.31034147  0.92573768  0.23699503     0.77500
Cd24       Cd  0.31235482  0.92884429  0.17169691     1.37500
O25         O  0.02403669  0.89392148  0.14948549    -0.57500
O26         O  0.32908445  0.90898196  0.22069132    -0.56300
C27         C  0.31395722  0.97682824  0.13762150     0.77400
O28         O  0.29238636  0.94461808  0.22316624    -0.58700
O29         O  0.06105387  0.92645607  0.16736794    -0.57200
O30         O  0.23053897  0.92464547  0.17004486    -0.57100
O31         O  0.29819881  0.95584552  0.12720115    -0.56300
C32         C  0.14414689  0.85633380  0.12208382     0.03400
C33         C  0.18511099  0.86827387  0.12971611    -0.12700
C34         C  0.18604745  0.89171116  0.14587354     0.00900
C35         C  0.14545565  0.90342140  0.15385445    -0.11300
C36         C  0.10422065  0.89188993  0.14613876     0.03400
C37         C  0.10387287  0.86824221  0.13043750    -0.10700
H38         H  0.21622608  0.85895589  0.12370142     0.09000
H39         H  0.14594857  0.92154903  0.16620428     0.06500
H40         H  0.07221986  0.85914940  0.12441026     0.08400
C41         C  0.13988593  0.65738334  0.97045486     0.03400
C42         C  0.14299420  0.68178436  0.98446618    -0.12700
C43         C  0.14542380  0.68368077  0.01610263     0.00900
C44         C  0.14637761  0.66093178  0.03355431    -0.11300
C45         C  0.14318867  0.63647193  0.01988081     0.03400
C46         C  0.13969051  0.63490841  0.98831487    -0.10700
H47         H  0.14167053  0.69925983  0.97083958     0.09000
H48         H  0.14978094  0.66234810  0.05791645     0.06500
H49         H  0.13671305  0.61612861  0.97752146     0.06400
O50         O  0.17383953  0.67550869  0.65406175    -0.57500
C51         C  0.04533779  0.66569967  0.66041397     0.75100
O52         O  0.12456976  0.59387979  0.67256558    -0.58700
C53         C  0.21137841  0.66551149  0.66089707     0.75100
C54         C  0.13044800  0.64353355  0.74374079     0.77500
Cd55       Cd  0.12861289  0.64182088  0.67841529     1.37500
O56         O  0.08239446  0.67732080  0.65744196    -0.57500
O57         O  0.15109373  0.66000481  0.72788140    -0.56300
C58         C  0.13446751  0.59412548  0.64482382     0.77400
O59         O  0.10912130  0.62615892  0.72942331    -0.58700
O60         O  0.04695526  0.64326220  0.67182190    -0.57200
O61         O  0.21043231  0.64469277  0.67623380    -0.57100
O62         O  0.14186370  0.61610588  0.63323365    -0.56300
C63         C  0.13119137  0.21124399  0.62101695     0.03400
C64         C  0.09035883  0.19900383  0.62771524    -0.12700
C65         C  0.08974650  0.17495337  0.64267525     0.00900
C66         C  0.13046340  0.16315639  0.65082610    -0.11300
C67         C  0.17144649  0.17523069  0.64435037     0.03400
C68         C  0.17150968  0.19924362  0.62944925    -0.10700
H69         H  0.05912284  0.20819586  0.62118531     0.09000
H70         H  0.13027415  0.14465383  0.66248244     0.06500
H71         H  0.20302100  0.20889900  0.62484325     0.06400
C72         C  0.15227558  0.41004712  0.47004936     0.03400
C73         C  0.14850443  0.43284786  0.48723081    -0.12700
C74         C  0.14496780  0.43188402  0.51888464     0.00900
C75         C  0.14409456  0.40762738  0.53326375    -0.11300
C76         C  0.14656125  0.38459065  0.51654829     0.03400
C77         C  0.15132908  0.38594655  0.48500592    -0.10700
H78         H  0.14729059  0.45144232  0.47584929     0.09000
H79         H  0.14266799  0.40658951  0.55769448     0.06500
H80         H  0.15391141  0.36819854  0.47212534     0.06400
O81         O  0.19719617  0.39080318  0.15415369    -0.57500
C82         C  0.06823588  0.40218524  0.15852058     0.75100
O83         O  0.16998784  0.44260616  0.22818175    -0.58700
C84         C  0.23449103  0.40212008  0.15810228     0.75100
C85         C  0.14815905  0.47285232  0.14349722     0.77500
Cd86       Cd  0.15206006  0.42521219  0.17702575     1.37500
O87         O  0.10527558  0.39097327  0.15437130    -0.57500
O88         O  0.16035959  0.45178615  0.13164024    -0.56300
C89         C  0.15686744  0.42274209  0.24247100     0.77400
O90         O  0.13769032  0.47196224  0.17115447    -0.58700
O91         O  0.06996821  0.42403742  0.17151458    -0.57200
O92         O  0.23351626  0.42397371  0.17104680    -0.57100
O93         O  0.14197177  0.40422824  0.22653401    -0.56300
C94         C  0.31723739  0.35633867  0.12190369     0.03400
C95         C  0.02468881  0.36767866  0.13120420    -0.12700
C96         C  0.02529778  0.39037186  0.14874470     0.00900
C97         C  0.31796522  0.40170616  0.15701978    -0.11300
C98         C  0.27695970  0.39042429  0.14833402     0.03400
C99         C  0.27683233  0.36781222  0.13067281    -0.10700
H100        H  0.05597659  0.35899524  0.12440056     0.09000
H101        H  0.31823253  0.41912921  0.17068349     0.06500
H102        H  0.24527843  0.35889992  0.12406578     0.06400
C103        C  0.31581176  0.16080366  0.96167126     0.03400
C104        C  0.31663150  0.13848282  0.98002491    -0.12700
C105        C  0.31546017  0.14026550  0.01174152     0.00900
C106        C  0.31524217  0.16496667  0.02503970    -0.11300
C107        C  0.31619620  0.18755688  0.00719237     0.03400
C108        C  0.31602384  0.18532054  0.97552622    -0.10700
H109        H  0.31843525  0.11958679  0.96948727     0.09000
H110        H  0.31303866  0.16673782  0.04937233     0.06500
H111        H  0.31558291  0.20269174  0.96172841     0.06400
O112        O  0.00955821  0.17342783  0.64586480    -0.57500
C113        C  0.21417606  0.16295570  0.65322212     0.75100
O114        O  0.31185654  0.09194620  0.66561708    -0.58700
C115        C  0.04688284  0.16255179  0.65083975     0.75100
C116        C  0.29890942  0.14400562  0.73479536     0.77500
Cd117      Cd  0.29774265  0.13920702  0.66982716     1.37500
O118        O  0.25149734  0.17281777  0.64613906    -0.57500
O119        O  0.31479555  0.16139007  0.71780141    -0.56300
C120        C  0.29856090  0.09029243  0.63838799     0.77400
O121        O  0.28258946  0.12422575  0.72174038    -0.58700
O122        O  0.21550929  0.14204466  0.66822396    -0.57200
O123        O  0.04565610  0.14063905  0.66377099    -0.57100
O124        O  0.28538767  0.11111289  0.62608738    -0.56300
C125        C  0.29949719  0.14665520  0.76804908    -0.01000
C126        C  0.27606416  0.12892970  0.78593078    -0.09000
C127        C  0.27695771  0.13090134  0.81736909    -0.17900
C128        C  0.30181515  0.15071143  0.83209538     0.04500
C129        C  0.32526120  0.16883440  0.81381170     0.18700
C130        C  0.32368364  0.16675412  0.78212474    -0.19300
C131        C  0.35051991  0.18873591  0.82726906    -0.20500
C132        C  0.35358581  0.19081158  0.85859600    -0.19100
C133        C  0.33117726  0.17316000  0.87725036     0.20100
C134        C  0.30462250  0.15300635  0.86425589     0.02200
C135        C  0.28210130  0.13595934  0.88404279    -0.13800
C136        C  0.28599758  0.13867733  0.91529179    -0.11500
C137        C  0.31267832  0.15827794  0.92815515     0.01800
C138        C  0.33517495  0.17552074  0.90887745    -0.23700
H139        H  0.25687825  0.11336350  0.77557082     0.09800
H140        H  0.25814578  0.11642119  0.82941682     0.13300
H141        H  0.34191872  0.18059966  0.76841861     0.12100
H142        H  0.03504047  0.20266572  0.81346699     0.13300
H143        H  0.37369305  0.20631447  0.86830219     0.12300
H144        H  0.26083893  0.12040367  0.87618774     0.09400
H145        H  0.26725686  0.12548847  0.92948689     0.12600
H146        H  0.35621158  0.19066739  0.91845787     0.14500
C147        C  0.31684868  0.33224625  0.10355260    -0.01000
C148        C  0.28775125  0.32956947  0.07863769    -0.09000
C149        C  0.28705808  0.30678709  0.06152118    -0.17900
C150        C  0.31543352  0.28574403  0.06898741     0.04500
C151        C  0.34454002  0.28854963  0.09449890     0.18700
C152        C  0.34521676  0.31164306  0.11123854    -0.19300
C153        C  0.03924905  0.26819907  0.10342427    -0.20500
C154        C  0.03890888  0.24493512  0.08770182    -0.19100
C155        C  0.34421371  0.24153631  0.06245123     0.20100
C156        C  0.31572700  0.26193091  0.05241323     0.02200
C157        C  0.28888655  0.25749249  0.02629656    -0.13800
C158        C  0.28960048  0.23360093  0.01136170    -0.11500
C159        C  0.31688360  0.21339573  0.02194935     0.01800
C160        C  0.34446585  0.21768771  0.04729337    -0.23700
H161        H  0.26565950  0.34529866  0.07217884     0.09800
H162        H  0.26371144  0.30617094  0.04276478     0.13300
H163        H  0.03395936  0.31338775  0.13079134     0.12100
H164        H  0.06139948  0.27021310  0.12288542     0.13300
H165        H  0.06075987  0.22946196  0.09537326     0.12300
H166        H  0.26691994  0.27203596  0.01692060     0.09400
H167        H  0.26790843  0.23074078  0.99183419     0.12600
H168        H  0.03306140  0.20233521  0.05524706     0.14500
C169        C  0.15614845  0.41158936  0.43651449    -0.01000
C170        C  0.18045516  0.43178913  0.42302435    -0.09000
C171        C  0.18220919  0.43429775  0.39162220    -0.17900
C172        C  0.16000765  0.41638166  0.37241978     0.04500
C173        C  0.13691879  0.39532307  0.38612888     0.18700
C174        C  0.13482090  0.39327519  0.41776695    -0.19300
C175        C  0.11579192  0.37647029  0.36819015    -0.20500
C176        C  0.11700662  0.37807343  0.33683895    -0.19100
C177        C  0.13858377  0.39885778  0.32263314     0.20100
C178        C  0.16002533  0.41849230  0.34016703     0.02200
C179        C  0.17996927  0.43951882  0.32461018    -0.13800
C180        C  0.17898365  0.44080389  0.29303417    -0.11500
C181        C  0.15838175  0.42120065  0.27590336     0.01800
C182        C  0.13839989  0.40023349  0.29090944    -0.23700
H183        H  0.19843711  0.44579520  0.43682225     0.09800
H184        H  0.20159434  0.45033491  0.38310115     0.13300
H185        H  0.11559567  0.37764036  0.42773902     0.12100
H186        H  0.09833680  0.36029017  0.37848449     0.13300
H187        H  0.10049474  0.36308346  0.32359785     0.12300
H188        H  0.19605859  0.45546449  0.33617001     0.09400
H189        H  0.19443797  0.45727531  0.28198293     0.12600
H190        H  0.12201231  0.38506078  0.27786408     0.14500
C191        C  0.13200622  0.23682217  0.60579319    -0.01000
C192        C  0.10349487  0.25662237  0.61517655    -0.09000
C193        C  0.10485661  0.28099818  0.60151616    -0.17900
C194        C  0.13487498  0.28632976  0.57773813     0.04500
C195        C  0.16369216  0.26609266  0.56826356     0.18700
C196        C  0.16205229  0.24169777  0.58231647    -0.19300
C197        C  0.19393237  0.27028345  0.54479120    -0.20500
C198        C  0.19622980  0.29423305  0.53042071    -0.19100
C199        C  0.16830403  0.31455134  0.53915816     0.20100
C200        C  0.13723719  0.31092973  0.56296621     0.02200
C201        C  0.10972930  0.33206466  0.57081772    -0.13800
C202        C  0.11283511  0.35567473  0.55561246    -0.11500
C203        C  0.14356930  0.35920406  0.53224929     0.01800
C204        C  0.17124261  0.33851526  0.52415139    -0.23700
H205        H  0.08048046  0.25337411  0.63357825     0.09800
H206        H  0.08204060  0.29520332  0.61019247     0.13300
H207        H  0.18396588  0.22634150  0.57477329     0.12100
H208        H  0.21595232  0.25491361  0.53746792     0.13300
H209        H  0.21995153  0.29686149  0.51228905     0.12300
H210        H  0.08524340  0.33101512  0.58846678     0.09400
H211        H  0.09058168  0.37122416  0.56200034     0.12600
H212        H  0.19553478  0.34115404  0.50636324     0.14500
C213        C  0.13714760  0.57027979  0.62657233    -0.01000
C214        C  0.15895563  0.57097521  0.59874826    -0.09000
C215        C  0.16112660  0.54896486  0.58065605    -0.17900
C216        C  0.14096882  0.52540065  0.58970546     0.04500
C217        C  0.11769156  0.52494678  0.61759027     0.18700
C218        C  0.11674506  0.54715183  0.63600545    -0.19300
C219        C  0.09491009  0.50248758  0.62660657    -0.20500
C220        C  0.09430338  0.48055281  0.60830583    -0.19100
C221        C  0.11790713  0.48021928  0.58111935     0.20100
C222        C  0.14246308  0.50244008  0.57180804     0.02200
C223        C  0.16812757  0.50058323  0.54525224    -0.13800
C224        C  0.16870502  0.47781119  0.52837079    -0.11500
C225        C  0.14327376  0.45617555  0.53695712     0.01800
C226        C  0.11768094  0.45764040  0.56337688    -0.23700
H227        H  0.17455674  0.58870712  0.59085193     0.09800
H228        H  0.17793828  0.55124098  0.55938536     0.13300
H229        H  0.09909096  0.54663129  0.65729587     0.12100
H230        H  0.07685517  0.50201387  0.64772645     0.13300
H231        H  0.07582408  0.46359608  0.61569889     0.12300
H232        H  0.18922034  0.51612831  0.53735269     0.09400
H233        H  0.19001533  0.47703921  0.50874876     0.12600
H234        H  0.09759738  0.44115216  0.57029094     0.14500
C235        C  0.14272757  0.61259679  0.03854556    -0.01000
C236        C  0.11973512  0.61200807  0.06596192    -0.09000
C237        C  0.11922985  0.58967016  0.08370827    -0.17900
C238        C  0.14157506  0.56696657  0.07442124     0.04500
C239        C  0.16375322  0.56743513  0.04615341     0.18700
C240        C  0.16464124  0.59017866  0.02879862    -0.19300
C241        C  0.18492633  0.54521021  0.03532575    -0.20500
C242        C  0.18478436  0.52243171  0.05211930    -0.19100
C243        C  0.16420035  0.52151827  0.08037123     0.20100
C244        C  0.14258783  0.54381378  0.09207701     0.02200
C245        C  0.12348627  0.54204660  0.12113730    -0.13800
C246        C  0.12551678  0.51905999  0.13771664    -0.11500
C247        C  0.14629179  0.49711167  0.12588893     0.01800
C248        C  0.16546459  0.49843707  0.09715662    -0.23700
H249        H  0.10145478  0.62881926  0.07361328     0.09800
H250        H  0.10051272  0.59074803  0.10433430     0.13300
H251        H  0.18288346  0.59045513  0.00774616     0.12100
H252        H  0.20156964  0.54541724  0.01367018     0.13300
H253        H  0.20132975  0.50549346  0.04309970     0.12300
H254        H  0.10724097  0.55812047  0.13190649     0.09400
H255        H  0.11055203  0.51846056  0.15991101     0.12600
H256        H  0.18195592  0.48154060  0.08795814     0.14500
C257        C  0.13659598  0.65514541  0.93717984    -0.01000
C258        C  0.10605544  0.63783134  0.92376585    -0.09000
C259        C  0.10388514  0.63497905  0.89243083    -0.17900
C260        C  0.13249031  0.64943170  0.87341580     0.04500
C261        C  0.16319380  0.66708653  0.88724865     0.18700
C262        C  0.16491921  0.66976973  0.91877187    -0.19300
C263        C  0.19214323  0.68196403  0.86957605    -0.20500
C264        C  0.19097574  0.67997578  0.83828817    -0.19100
C265        C  0.16103954  0.66292776  0.82393262     0.20100
C266        C  0.13165241  0.64716457  0.84123475     0.02200
C267        C  0.10280862  0.62986721  0.82550377    -0.13800
C268        C  0.10276142  0.62862831  0.79397076    -0.11500
C269        C  0.13118869  0.64458100  0.77710233     0.01800
C270        C  0.16033659  0.66161717  0.79225855    -0.23700
H271        H  0.08344121  0.62654228  0.93760126     0.09800
H272        H  0.07936852  0.62139710  0.88384764     0.13300
H273        H  0.18897672  0.68297185  0.92908322     0.12100
H274        H  0.21570494  0.69536497  0.88002380     0.13300
H275        H  0.21363823  0.69190305  0.82520698     0.12300
H276        H  0.07992696  0.61701313  0.83684844     0.09400
H277        H  0.08004111  0.61523572  0.78273022     0.12600
H278        H  0.18273550  0.67387835  0.77935875     0.14500
C279        C  0.14429155  0.70922044  0.03132958    -0.01000
C280        C  0.11612093  0.71271959  0.05604640    -0.09000
C281        C  0.11471635  0.73632393  0.07119015    -0.17900
C282        C  0.14176604  0.75744343  0.06212085     0.04500
C283        C  0.16995459  0.75396379  0.03672634     0.18700
C284        C  0.17087707  0.73001031  0.02154852    -0.19300
C285        C  0.19709731  0.77438295  0.02673203    -0.20500
C286        C  0.19679208  0.79825072  0.04138017    -0.19100
C287        C  0.16955996  0.80224263  0.06651183     0.20100
C288        C  0.14174163  0.78186160  0.07731499     0.02200
C289        C  0.11526789  0.78677478  0.10299309    -0.13800
C290        C  0.11607589  0.81091425  0.11710741    -0.11500
C291        C  0.14333053  0.83095833  0.10636194     0.01800
C292        C  0.17010156  0.82649106  0.08104910    -0.23700
H293        H  0.09459069  0.69708752  0.06360434     0.09800
H294        H  0.09194117  0.73733967  0.08983112     0.13300
H295        H  0.19282169  0.72739644  0.00243182     0.12100
H296        H  0.21868961  0.77188959  0.00742440     0.13300
H297        H  0.21814677  0.81367764  0.03305437     0.12300
H298        H  0.09374564  0.77238477  0.11294043     0.09400
H299        H  0.09570227  0.81380604  0.13692538     0.12600
H300        H  0.19116109  0.84199847  0.07254927     0.14500
C301        C  0.31330629  0.11633108  0.03074173    -0.01000
C302        C  0.28938176  0.09455603  0.02041530    -0.09000
C303        C  0.28811207  0.07172680  0.03731169    -0.17900
C304        C  0.31042638  0.06984174  0.06558644     0.04500
C305        C  0.33272771  0.09229412  0.07683881     0.18700
C306        C  0.33454708  0.11506271  0.05926653    -0.19300
C307        C  0.01977710  0.09184026  0.10553542    -0.20500
C308        C  0.01881179  0.06945241  0.12319937    -0.19100
C309        C  0.33184657  0.04673497  0.11227972     0.20100
C310        C  0.31111440  0.04655482  0.08314416     0.02200
C311        C  0.29269849  0.02292034  0.07258138    -0.13800
C312        C  0.29402031  0.00059603  0.09034431    -0.11500
C313        C  0.31357823  0.00089576  0.11928490     0.01800
C314        C  0.33251829  0.02407868  0.13014853    -0.23700
H315        H  0.27102734  0.09515698  0.99916486     0.09800
H316        H  0.26869582  0.05602434  0.02776528     0.13300
H317        H  0.01984097  0.13167164  0.06771424     0.12100
H318        H  0.03642476  0.10896517  0.11444581     0.13300
H319        H  0.03468152  0.06979389  0.14536738     0.12300
H320        H  0.27762210  0.02086966  0.05044577     0.09400
H321        H  0.27952143  0.98292321  0.08125847     0.12600
H322        H  0.01478563  0.02445682  0.15241347     0.14500
C323        C  0.29867945  0.95091021  0.53240191    -0.01000
C324        C  0.98840209  0.95092219  0.56024687    -0.09000
C325        C  0.98865758  0.97278781  0.57879281    -0.17900
C326        C  0.29950747  0.99568123  0.56990242     0.04500
C327        C  0.27690443  0.99573015  0.54138604     0.18700
C328        C  0.27635907  0.97347275  0.52318483    -0.19300
C329        C  0.25499936  0.01802861  0.53107810    -0.20500
C330        C  0.25528550  0.04045432  0.54836532    -0.19100
C331        C  0.27703796  0.04104483  0.57654227     0.20100
C332        C  0.29905391  0.01862529  0.58799083     0.02200
C333        C  0.98627464  0.02026962  0.61697047    -0.13800
C334        C  0.98574640  0.04339635  0.63344803    -0.11500
C335        C  0.29824197  0.06554054  0.62159790     0.01800
C336        C  0.27702118  0.06410528  0.59324539    -0.23700
H337        H  0.00685074  0.93398924  0.56769487     0.09800
H338        H  0.00723138  0.97124185  0.59975412     0.13300
H339        H  0.25794086  0.97366057  0.50191006     0.12100
H340        H  0.23781529  0.01820159  0.50934842     0.13300
H341        H  0.23834284  0.05749235  0.53960853     0.12300
H342        H  0.00295819  0.00406595  0.62753465     0.09400
H343        H  0.00212536  0.04400648  0.65542881     0.12600
H344        H  0.26034003  0.08107370  0.58404347     0.14500
C345        C  0.30038288  0.90844051  0.43014059    -0.01000
C346        C  0.99368352  0.89146726  0.41352291    -0.09000
C347        C  0.32951780  0.89352865  0.38212416    -0.17900
C348        C  0.30537621  0.91284554  0.36612078     0.04500
C349        C  0.27803791  0.92989908  0.38302852     0.18700
C350        C  0.27577486  0.92755431  0.41464966    -0.19300
C351        C  0.25321733  0.94925385  0.36830324    -0.20500
C352        C  0.25514759  0.95218136  0.33706524    -0.19100
C353        C  0.28195533  0.93583121  0.31975502     0.20100
C354        C  0.30744403  0.91589726  0.33402864     0.02200
C355        C  0.33398072  0.89992782  0.31553200    -0.13800
C356        C  0.33484420  0.90343862  0.28429454    -0.11500
C357        C  0.30958536  0.92298339  0.27028751     0.01800
C358        C  0.28334462  0.93924429  0.28818716    -0.23700
H359        H  0.01339731  0.87672417  0.42492381     0.09800
H360        H  0.01755914  0.87975994  0.37112745     0.13300
H361        H  0.25449382  0.94054983  0.42723688     0.12100
H362        H  0.23223410  0.96228357  0.38105306     0.13300
H363        H  0.23557341  0.96737867  0.32637618     0.12300
H364        H  0.02113025  0.88447980  0.32442168     0.09400
H365        H  0.02220638  0.89067317  0.27100266     0.12600
H366        H  0.26360642  0.95439781  0.27752885     0.14500
C367        C  0.29152225  0.85461389  0.52494260    -0.01000
C368        C  0.26038516  0.85101987  0.54799451    -0.09000
C369        C  0.25967353  0.82822711  0.56486136    -0.17900
C370        C  0.29040213  0.80807629  0.55925861     0.04500
C371        C  0.98768810  0.81139267  0.53511512     0.18700
C372        C  0.98799414  0.83455009  0.51822558    -0.19300
C373        C  0.01796709  0.79166638  0.52819086    -0.20500
C374        C  0.01824972  0.76859350  0.54458412    -0.19100
C375        C  0.98882574  0.76488107  0.56866343     0.20100
C376        C  0.29158191  0.78472926  0.57662380     0.02200
C377        C  0.26374398  0.78043935  0.60182191    -0.13800
C378        C  0.26521358  0.75715722  0.61779666    -0.11500
C379        C  0.29435045  0.73733956  0.60935252     0.01800
C380        C  0.98976863  0.74141975  0.58489927    -0.23700
H381        H  0.23650445  0.86610152  0.55316081     0.09800
H382        H  0.23450414  0.82703228  0.58206601     0.13300
H383        H  0.01225536  0.83727257  0.50041759     0.12100
H384        H  0.04142156  0.79403561  0.50985098     0.13300
H385        H  0.04183135  0.75360557  0.53850000     0.12300
H386        H  0.24071085  0.79474560  0.61002754     0.09400
H387        H  0.24360703  0.75473111  0.63712135     0.12600
H388        H  0.01250622  0.72616709  0.57824176     0.14500
C389        C  0.63197256  0.90635622  0.46364534     0.03400
C390        C  0.63004644  0.88192110  0.47787845    -0.12700
C391        C  0.29436100  0.88004659  0.50948499     0.00900
C392        C  0.29441492  0.90273315  0.52686495    -0.11300
C393        C  0.29742796  0.92723057  0.51327323     0.03400
C394        C  0.63266865  0.92887710  0.48157205    -0.10700
H395        H  0.62905894  0.86439528  0.46440544     0.09000
H396        H  0.29220337  0.90121794  0.55124166     0.06500
H397        H  0.63600434  0.94766607  0.47082761     0.06400
C398        C  0.62800732  0.71251906  0.62631279     0.03400
C399        C  0.58750857  0.70074615  0.63486062    -0.12700
C400        C  0.58742195  0.67753369  0.65150497     0.00900
C401        C  0.62841694  0.66596336  0.65933672    -0.11300
C402        C  0.33581332  0.67761681  0.65120577     0.03400
C403        C  0.33535771  0.70084152  0.63463789    -0.10700
H404        H  0.55599941  0.70964241  0.62837939     0.09000
H405        H  0.62865238  0.64804680  0.67218309     0.06500
H406        H  0.36668725  0.71006854  0.62858695     0.06400
O407        O  0.59983562  0.89448359  0.14733699    -0.57500
C408        C  0.39505597  0.90449408  0.15459979     0.75100
O409        O  0.66296853  0.97590440  0.16434160    -0.58700
C410        C  0.56245862  0.90397357  0.15468080     0.75100
C411        C  0.64367491  0.92573764  0.23699503     0.77500
Cd412      Cd  0.64568816  0.92884428  0.17169691     1.37500
O413        O  0.35736995  0.89392146  0.14948551    -0.57500
O414        O  0.66241795  0.90898193  0.22069134    -0.56300
C415        C  0.64729052  0.97682824  0.13762150     0.77400
O416        O  0.62571973  0.94461801  0.22316622    -0.58700
O417        O  0.39438719  0.92645610  0.16736777    -0.57200
O418        O  0.56387221  0.92464548  0.17004487    -0.57100
O419        O  0.63153201  0.95584554  0.12720119    -0.56300
C420        C  0.47748022  0.85633380  0.12208382     0.03400
C421        C  0.51844433  0.86827387  0.12971611    -0.12700
C422        C  0.51938071  0.89171116  0.14587354     0.00900
C423        C  0.47878891  0.90342138  0.15385445    -0.11300
C424        C  0.43755393  0.89188991  0.14613875     0.03400
C425        C  0.43720619  0.86824219  0.13043749    -0.10700
H426        H  0.54955939  0.85895591  0.12370144     0.09000
H427        H  0.47928179  0.92154902  0.16620427     0.06500
H428        H  0.40555319  0.85914938  0.12441025     0.08400
C429        C  0.47321925  0.65738330  0.97045486     0.03400
C430        C  0.47632758  0.68178433  0.98446617    -0.12700
C431        C  0.47875717  0.68368076  0.01610262     0.00900
C432        C  0.47971095  0.66093177  0.03355431    -0.11300
C433        C  0.47652198  0.63647192  0.01988083     0.03400
C434        C  0.47302385  0.63490838  0.98831488    -0.10700
H435        H  0.47500395  0.69925979  0.97083955     0.09000
H436        H  0.48311428  0.66234811  0.05791645     0.06500
H437        H  0.47004648  0.61612858  0.97752148     0.06400
O438        O  0.50717287  0.67550870  0.65406174    -0.57500
C439        C  0.37867112  0.66569966  0.66041397     0.75100
O440        O  0.45790279  0.59387980  0.67256549    -0.58700
C441        C  0.54471171  0.66551149  0.66089708     0.75100
C442        C  0.46378131  0.64353350  0.74374079     0.77500
Cd443      Cd  0.46194612  0.64182087  0.67841528     1.37500
O444        O  0.41572781  0.67732077  0.65744197    -0.57500
O445        O  0.48442692  0.66000481  0.72788140    -0.56300
C446        C  0.46780079  0.59412549  0.64482377     0.77400
O447        O  0.44245471  0.62615883  0.72942331    -0.58700
O448        O  0.38028853  0.64326219  0.67182191    -0.57200
O449        O  0.54376557  0.64469276  0.67623381    -0.57100
O450        O  0.47519712  0.61610588  0.63323363    -0.56300
C451        C  0.46452466  0.21124399  0.62101694     0.03400
C452        C  0.42369215  0.19900382  0.62771525    -0.12700
C453        C  0.42307985  0.17495337  0.64267525     0.00900
C454        C  0.46379678  0.16315640  0.65082609    -0.11300
C455        C  0.50477983  0.17523070  0.64435035     0.03400
C456        C  0.50484300  0.19924363  0.62944924    -0.10700
H457        H  0.39245610  0.20819585  0.62118532     0.09000
H458        H  0.46360756  0.14465384  0.66248243     0.06500
H459        H  0.53635427  0.20889902  0.62484325     0.06400
C460        C  0.48560895  0.41004712  0.47004936     0.03400
C461        C  0.48183770  0.43284786  0.48723080    -0.12700
C462        C  0.47830114  0.43188401  0.51888464     0.00900
C463        C  0.47742778  0.40762737  0.53326374    -0.11300
C464        C  0.47989452  0.38459065  0.51654828     0.03400
C465        C  0.48466248  0.38594655  0.48500592    -0.10700
H466        H  0.48062378  0.45144231  0.47584929     0.09000
H467        H  0.47600121  0.40658951  0.55769446     0.06500
H468        H  0.48724494  0.36819854  0.47212535     0.06400
O469        O  0.53052956  0.39080319  0.15415370    -0.57500
C470        C  0.40156917  0.40218524  0.15852058     0.75100
O471        O  0.50332122  0.44260616  0.22818175    -0.58700
C472        C  0.56782443  0.40212008  0.15810228     0.75100
C473        C  0.48149232  0.47285232  0.14349722     0.77500
Cd474      Cd  0.48539343  0.42521218  0.17702574     1.37500
O475        O  0.43860890  0.39097330  0.15437131    -0.57500
O476        O  0.49369272  0.45178613  0.13164020    -0.56300
C477        C  0.49020081  0.42274210  0.24247100     0.77400
O478        O  0.47102374  0.47196226  0.17115450    -0.58700
O479        O  0.40330147  0.42403741  0.17151459    -0.57200
O480        O  0.56684968  0.42397371  0.17104679    -0.57100
O481        O  0.47530515  0.40422825  0.22653401    -0.56300
C482        C  0.65057071  0.35633864  0.12190370     0.03400
C483        C  0.35802215  0.36767870  0.13120410    -0.12700
C484        C  0.35863112  0.39037185  0.14874466     0.00900
C485        C  0.65129859  0.40170614  0.15701977    -0.11300
C486        C  0.61029305  0.39042428  0.14833401     0.03400
C487        C  0.61016567  0.36781221  0.13067280    -0.10700
H488        H  0.38931000  0.35899531  0.12440039     0.09000
H489        H  0.65156593  0.41912920  0.17068349     0.06500
H490        H  0.57861175  0.35889990  0.12406576     0.06400
C491        C  0.64914507  0.16080366  0.96167126     0.03400
C492        C  0.64996479  0.13848281  0.98002491    -0.12700
C493        C  0.64879346  0.14026550  0.01174152     0.00900
C494        C  0.64857557  0.16496667  0.02503970    -0.11300
C495        C  0.64952962  0.18755688  0.00719236     0.03400
C496        C  0.64935723  0.18532054  0.97552622    -0.10700
H497        H  0.65176860  0.11958678  0.96948729     0.09000
H498        H  0.64637210  0.16673781  0.04937233     0.06500
H499        H  0.64891635  0.20269175  0.96172842     0.06400
O500        O  0.34289160  0.17342781  0.64586481    -0.57500
C501        C  0.54750941  0.16295571  0.65322211     0.75100
O502        O  0.64518967  0.09194618  0.66561712    -0.58700
C503        C  0.38021623  0.16255178  0.65083976     0.75100
C504        C  0.63224269  0.14400562  0.73479536     0.77500
Cd505      Cd  0.63107598  0.13920702  0.66982716     1.37500
O506        O  0.58483072  0.17281776  0.64613907    -0.57500
O507        O  0.64812868  0.16139011  0.71780142    -0.56300
C508        C  0.63189418  0.09029242  0.63838799     0.77400
O509        O  0.61592286  0.12422571  0.72174037    -0.58700
O510        O  0.54884260  0.14204467  0.66822395    -0.57200
O511        O  0.37898948  0.14063903  0.66377100    -0.57100
O512        O  0.61872107  0.11111290  0.62608735    -0.56300
C513        C  0.63283050  0.14665517  0.76804908    -0.01000
C514        C  0.60939765  0.12892962  0.78593080    -0.09000
C515        C  0.61029114  0.13090128  0.81736910    -0.17900
C516        C  0.63514851  0.15071142  0.83209538     0.04500
C517        C  0.65859449  0.16883441  0.81381169     0.18700
C518        C  0.65701687  0.16675414  0.78212473    -0.19300
C519        C  0.68385325  0.18873591  0.82726906    -0.20500
C520        C  0.68691914  0.19081157  0.85859599    -0.19100
C521        C  0.66451056  0.17316002  0.87725036     0.20100
C522        C  0.63795587  0.15300634  0.86425588     0.02200
C523        C  0.61543469  0.13595931  0.88404279    -0.13800
C524        C  0.61933097  0.13867730  0.91529179    -0.11500
C525        C  0.64601165  0.15827793  0.92815515     0.01800
C526        C  0.66850818  0.17552078  0.90887746    -0.23700
H527        H  0.59021178  0.11336336  0.77557084     0.09800
H528        H  0.59147923  0.11642114  0.82941683     0.13300
H529        H  0.67525186  0.18059969  0.76841860     0.12100
H530        H  0.36837369  0.20266576  0.81346700     0.13300
H531        H  0.70702641  0.20631447  0.86830219     0.12300
H532        H  0.59417229  0.12040368  0.87618774     0.09400
H533        H  0.60059022  0.12548846  0.92948688     0.12600
H534        H  0.68954474  0.19066747  0.91845787     0.14500
C535        C  0.65018207  0.33224623  0.10355261    -0.01000
C536        C  0.62108467  0.32956947  0.07863767    -0.09000
C537        C  0.62039146  0.30678709  0.06152117    -0.17900
C538        C  0.64876684  0.28574401  0.06898742     0.04500
C539        C  0.67787332  0.28854959  0.09449893     0.18700
C540        C  0.67855007  0.31164302  0.11123856    -0.19300
C541        C  0.37258246  0.26819910  0.10342425    -0.20500
C542        C  0.37224230  0.24493513  0.08770180    -0.19100
C543        C  0.67754717  0.24153633  0.06245116     0.20100
C544        C  0.64906040  0.26193091  0.05241319     0.02200
C545        C  0.62221990  0.25749249  0.02629655    -0.13800
C546        C  0.62293377  0.23360092  0.01136172    -0.11500
C547        C  0.65021700  0.21339573  0.02194934     0.01800
C548        C  0.67779928  0.21768773  0.04729332    -0.23700
H549        H  0.59899299  0.34529869  0.07217883     0.09800
H550        H  0.59704487  0.30617098  0.04276473     0.13300
H551        H  0.36729294  0.31338788  0.13079114     0.12100
H552        H  0.39473290  0.27021315  0.12288539     0.13300
H553        H  0.39409331  0.22946198  0.09537323     0.12300
H554        H  0.60025323  0.27203595  0.01692060     0.09400
H555        H  0.60124162  0.23074073  0.99183428     0.12600
H556        H  0.36639482  0.20233522  0.05524701     0.14500
C557        C  0.48948183  0.41158935  0.43651449    -0.01000
C558        C  0.51378847  0.43178916  0.42302436    -0.09000
C559        C  0.51554257  0.43429774  0.39162220    -0.17900
C560        C  0.49334106  0.41638165  0.37241977     0.04500
C561        C  0.47025217  0.39532306  0.38612886     0.18700
C562        C  0.46815433  0.39327516  0.41776693    -0.19300
C563        C  0.44912523  0.37647031  0.36819010    -0.20500
C564        C  0.45034003  0.37807343  0.33683892    -0.19100
C565        C  0.47191721  0.39885777  0.32263312     0.20100
C566        C  0.49335871  0.41849229  0.34016702     0.02200
C567        C  0.51330259  0.43951885  0.32461018    -0.13800
C568        C  0.51231703  0.44080390  0.29303417    -0.11500
C569        C  0.49171515  0.42120066  0.27590335     0.01800
C570        C  0.47173334  0.40023348  0.29090942    -0.23700
H571        H  0.53177033  0.44579526  0.43682224     0.09800
H572        H  0.53492778  0.45033489  0.38310115     0.13300
H573        H  0.44892911  0.37764032  0.42773901     0.12100
H574        H  0.43166999  0.36029020  0.37848443     0.13300
H575        H  0.43382818  0.36308344  0.32359779     0.12300
H576        H  0.52939179  0.45546453  0.33617002     0.09400
H577        H  0.52777139  0.45727530  0.28198294     0.12600
H578        H  0.45534575  0.38506078  0.27786405     0.14500
C579        C  0.46533957  0.23682217  0.60579319    -0.01000
C580        C  0.43682827  0.25662239  0.61517657    -0.09000
C581        C  0.43819003  0.28099819  0.60151619    -0.17900
C582        C  0.46820837  0.28632976  0.57773813     0.04500
C583        C  0.49702547  0.26609264  0.56826353     0.18700
C584        C  0.49538565  0.24169777  0.58231648    -0.19300
C585        C  0.52726566  0.27028342  0.54479116    -0.20500
C586        C  0.52956316  0.29423304  0.53042071    -0.19100
C587        C  0.50163747  0.31455135  0.53915816     0.20100
C588        C  0.47057062  0.31092973  0.56296622     0.02200
C589        C  0.44306275  0.33206466  0.57081774    -0.13800
C590        C  0.44616854  0.35567472  0.55561248    -0.11500
C591        C  0.47690270  0.35920406  0.53224929     0.01800
C592        C  0.50457602  0.33851527  0.52415140    -0.23700
H593        H  0.41381387  0.25337413  0.63357826     0.09800
H594        H  0.41537404  0.29520334  0.61019251     0.13300
H595        H  0.51729926  0.22634150  0.57477332     0.12100
H596        H  0.54928554  0.25491358  0.53746787     0.13300
H597        H  0.55328494  0.29686146  0.51228905     0.12300
H598        H  0.41857684  0.33101512  0.58846679     0.09400
H599        H  0.42391508  0.37122414  0.56200036     0.12600
H600        H  0.52886818  0.34115404  0.50636319     0.14500
C601        C  0.47048099  0.57027979  0.62657231    -0.01000
C602        C  0.49228903  0.57097521  0.59874825    -0.09000
C603        C  0.49445993  0.54896487  0.58065601    -0.17900
C604        C  0.47430221  0.52540065  0.58970545     0.04500
C605        C  0.45102500  0.52494677  0.61759027     0.18700
C606        C  0.45007850  0.54715182  0.63600545    -0.19300
C607        C  0.42824352  0.50248756  0.62660655    -0.20500
C608        C  0.42763672  0.48055282  0.60830577    -0.19100
C609        C  0.45124048  0.48021930  0.58111929     0.20100
C610        C  0.47579647  0.50244008  0.57180802     0.02200
C611        C  0.50146101  0.50058323  0.54525224    -0.13800
C612        C  0.50203844  0.47781119  0.52837078    -0.11500
C613        C  0.47660720  0.45617555  0.53695712     0.01800
C614        C  0.45101435  0.45764041  0.56337687    -0.23700
H615        H  0.50789016  0.58870711  0.59085193     0.09800
H616        H  0.51127150  0.55124100  0.55938531     0.13300
H617        H  0.43242439  0.54663128  0.65729587     0.12100
H618        H  0.41018864  0.50201383  0.64772646     0.13300
H619        H  0.40915743  0.46359610  0.61569882     0.12300
H620        H  0.52255379  0.51612830  0.53735272     0.09400
H621        H  0.52334874  0.47703922  0.50874872     0.12600
H622        H  0.43093082  0.44115217  0.57029094     0.14500
C623        C  0.47606089  0.61259679  0.03854558    -0.01000
C624        C  0.45306833  0.61200805  0.06596190    -0.09000
C625        C  0.45256304  0.58967014  0.08370823    -0.17900
C626        C  0.47490829  0.56696656  0.07442122     0.04500
C627        C  0.49708658  0.56743514  0.04615343     0.18700
C628        C  0.49797462  0.59017867  0.02879867    -0.19300
C629        C  0.51825975  0.54521022  0.03532578    -0.20500
C630        C  0.51811777  0.52243173  0.05211933    -0.19100
C631        C  0.49753366  0.52151828  0.08037123     0.20100
C632        C  0.47592106  0.54381377  0.09207698     0.02200
C633        C  0.45681947  0.54204658  0.12113727    -0.13800
C634        C  0.45885015  0.51906000  0.13771667    -0.11500
C635        C  0.47962510  0.49711168  0.12588894     0.01800
C636        C  0.49879784  0.49843706  0.09715660    -0.23700
H637        H  0.43478795  0.62881924  0.07361322     0.09800
H638        H  0.43384589  0.59074801  0.10433427     0.13300
H639        H  0.51621688  0.59045514  0.00774620     0.12100
H640        H  0.53490311  0.54541726  0.01367023     0.13300
H641        H  0.53466319  0.50549348  0.04309975     0.12300
H642        H  0.44057406  0.55812043  0.13190642     0.09400
H643        H  0.44388547  0.51846059  0.15991107     0.12600
H644        H  0.51528906  0.48154057  0.08795809     0.14500
C645        C  0.46992929  0.65514538  0.93717984    -0.01000
C646        C  0.43938880  0.63783127  0.92376585    -0.09000
C647        C  0.43721858  0.63497894  0.89243084    -0.17900
C648        C  0.46582367  0.64943164  0.87341579     0.04500
C649        C  0.49652703  0.66708654  0.88724864     0.18700
C650        C  0.49825243  0.66976976  0.91877186    -0.19300
C651        C  0.52547644  0.68196406  0.86957605    -0.20500
C652        C  0.52430907  0.67997573  0.83828817    -0.19100
C653        C  0.49437292  0.66292769  0.82393261     0.20100
C654        C  0.46498577  0.64716451  0.84123475     0.02200
C655        C  0.43614191  0.62986720  0.82550376    -0.13800
C656        C  0.43609472  0.62862827  0.79397076    -0.11500
C657        C  0.46452197  0.64458098  0.77710232     0.01800
C658        C  0.49366984  0.66161717  0.79225854    -0.23700
H659        H  0.41677455  0.62654223  0.93760124     0.09800
H660        H  0.41270202  0.62139694  0.88384765     0.13300
H661        H  0.52230986  0.68297191  0.92908320     0.12100
H662        H  0.54903805  0.69536506  0.88002380     0.13300
H663        H  0.54697155  0.69190303  0.82520698     0.12300
H664        H  0.41326015  0.61701315  0.83684846     0.09400
H665        H  0.41337448  0.61523564  0.78273024     0.12600
H666        H  0.51606867  0.67387840  0.77935873     0.14500
C667        C  0.47762484  0.70922044  0.03132956    -0.01000
C668        C  0.44945427  0.71271957  0.05604641    -0.09000
C669        C  0.44804975  0.73632391  0.07119020    -0.17900
C670        C  0.47509942  0.75744341  0.06212089     0.04500
C671        C  0.50328789  0.75396379  0.03672635     0.18700
C672        C  0.50421033  0.73001032  0.02154847    -0.19300
C673        C  0.53043054  0.77438296  0.02673199    -0.20500
C674        C  0.53012526  0.79825074  0.04138013    -0.19100
C675        C  0.50289319  0.80224263  0.06651180     0.20100
C676        C  0.47507493  0.78186159  0.07731501     0.02200
C677        C  0.44860119  0.78677479  0.10299309    -0.13800
C678        C  0.44940924  0.81091424  0.11710744    -0.11500
C679        C  0.47666388  0.83095832  0.10636196     0.01800
C680        C  0.50343481  0.82649107  0.08104907    -0.23700
H681        H  0.42792407  0.69708752  0.06360437     0.09800
H682        H  0.42527459  0.73733966  0.08983117     0.13300
H683        H  0.52615485  0.72739647  0.00243177     0.12100
H684        H  0.55202277  0.77188964  0.00742434     0.13300
H685        H  0.55147990  0.81367768  0.03305431     0.12300
H686        H  0.42707887  0.77238477  0.11294042     0.09400
H687        H  0.42903569  0.81380602  0.13692544     0.12600
H688        H  0.52449429  0.84199848  0.07254921     0.14500
C689        C  0.64663957  0.11633108  0.03074173    -0.01000
C690        C  0.62271499  0.09455604  0.02041535    -0.09000
C691        C  0.62144521  0.07172684  0.03731177    -0.17900
C692        C  0.64375967  0.06984174  0.06558645     0.04500
C693        C  0.66606107  0.09229412  0.07683879     0.18700
C694        C  0.66788037  0.11506272  0.05926653    -0.19300
C695        C  0.35311043  0.09184026  0.10553547    -0.20500
C696        C  0.35214499  0.06945244  0.12319944    -0.19100
C697        C  0.66517995  0.04673495  0.11227968     0.20100
C698        C  0.64444767  0.04655482  0.08314416     0.02200
C699        C  0.62603163  0.02292035  0.07258141    -0.13800
C700        C  0.62735345  0.00059605  0.09034434    -0.11500
C701        C  0.64691148  0.00089576  0.11928490     0.01800
C702        C  0.66585164  0.02407867  0.13014849    -0.23700
H703        H  0.60436052  0.09515698  0.99916490     0.09800
H704        H  0.60202880  0.05602440  0.02776543     0.13300
H705        H  0.35317437  0.13167164  0.06771426     0.12100
H706        H  0.36975810  0.10896517  0.11444584     0.13300
H707        H  0.36801453  0.06979394  0.14536755     0.12300
H708        H  0.61095522  0.02086967  0.05044581     0.09400
H709        H  0.61285455  0.98292323  0.08125851     0.12600
H710        H  0.34811902  0.02445680  0.15241348     0.14500
C711        C  0.63201273  0.95091019  0.53240191    -0.01000
C712        C  0.32173547  0.95092220  0.56024686    -0.09000
C713        C  0.32199093  0.97278782  0.57879280    -0.17900
C714        C  0.63284083  0.99568124  0.56990240     0.04500
C715        C  0.61023779  0.99573014  0.54138602     0.18700
C716        C  0.60969233  0.97347272  0.52318485    -0.19300
C717        C  0.58833271  0.01802860  0.53107807    -0.20500
C718        C  0.58861877  0.04045429  0.54836533    -0.19100
C719        C  0.61037129  0.04104484  0.57654225     0.20100
C720        C  0.63238727  0.01862530  0.58799081     0.02200
C721        C  0.31960798  0.02026964  0.61697046    -0.13800
C722        C  0.31907961  0.04339634  0.63344806    -0.11500
C723        C  0.63157529  0.06554055  0.62159789     0.01800
C724        C  0.61035446  0.06410526  0.59324540    -0.23700
H725        H  0.34018412  0.93398924  0.56769487     0.09800
H726        H  0.34056478  0.97124189  0.59975409     0.13300
H727        H  0.59127400  0.97366051  0.50191010     0.12100
H728        H  0.57114862  0.01820156  0.50934843     0.13300
H729        H  0.57167594  0.05749230  0.53960860     0.12300
H730        H  0.33629164  0.00406599  0.62753461     0.09400
H731        H  0.33545854  0.04400648  0.65542883     0.12600
H732        H  0.59367319  0.08107369  0.58404352     0.14500
C733        C  0.63371608  0.90844051  0.43014059    -0.01000
C734        C  0.32701692  0.89146726  0.41352291    -0.09000
C735        C  0.66285104  0.89352865  0.38212416    -0.17900
C736        C  0.63870950  0.91284557  0.36612078     0.04500
C737        C  0.61137116  0.92989909  0.38302851     0.18700
C738        C  0.60910810  0.92755433  0.41464966    -0.19300
C739        C  0.58655050  0.94925382  0.36830322    -0.20500
C740        C  0.58848074  0.95218131  0.33706522    -0.19100
C741        C  0.61528857  0.93583119  0.31975500     0.20100
C742        C  0.64077737  0.91589728  0.33402864     0.02200
C743        C  0.66731413  0.89992786  0.31553202    -0.13800
C744        C  0.66817762  0.90343864  0.28429456    -0.11500
C745        C  0.64291875  0.92298338  0.27028752     0.01800
C746        C  0.61667790  0.93924425  0.28818715    -0.23700
H747        H  0.34673072  0.87672418  0.42492380     0.09800
H748        H  0.35089249  0.87975992  0.37112743     0.13300
H749        H  0.58782709  0.94054986  0.42723686     0.12100
H750        H  0.56556724  0.96228351  0.38105304     0.13300
H751        H  0.56890647  0.96737860  0.32637617     0.12300
H752        H  0.35446368  0.88447982  0.32442167     0.09400
H753        H  0.35553959  0.89067313  0.27100265     0.12600
H754        H  0.59693964  0.95439775  0.27752881     0.14500
C755        C  0.62485549  0.85461387  0.52494255    -0.01000
C756        C  0.59371843  0.85101986  0.54799447    -0.09000
C757        C  0.59300690  0.82822714  0.56486137    -0.17900
C758        C  0.62373546  0.80807631  0.55925862     0.04500
C759        C  0.32102143  0.81139269  0.53511515     0.18700
C760        C  0.32132745  0.83455010  0.51822563    -0.19300
C761        C  0.35130049  0.79166644  0.52819092    -0.20500
C762        C  0.35158311  0.76859354  0.54458412    -0.19100
C763        C  0.32215911  0.76488106  0.56866341     0.20100
C764        C  0.62491523  0.78472928  0.57662383     0.02200
C765        C  0.59707728  0.78043942  0.60182194    -0.13800
C766        C  0.59854679  0.75715727  0.61779668    -0.11500
C767        C  0.62768362  0.73733959  0.60935257     0.01800
C768        C  0.32310207  0.74141974  0.58489927    -0.23700
H769        H  0.56983772  0.86610150  0.55316077     0.09800
H770        H  0.56783757  0.82703236  0.58206606     0.13300
H771        H  0.34558869  0.83727259  0.50041761     0.12100
H772        H  0.37475500  0.79403571  0.50985107     0.13300
H773        H  0.37516477  0.75360563  0.53849996     0.12300
H774        H  0.57404423  0.79474568  0.61002753     0.09400
H775        H  0.57694018  0.75473120  0.63712138     0.12600
H776        H  0.34583972  0.72616711  0.57824175     0.14500
C777        C  0.96530594  0.90635622  0.46364535     0.03400
C778        C  0.96337990  0.88192110  0.47787846    -0.12700
C779        C  0.62769423  0.88004659  0.50948496     0.00900
C780        C  0.62774826  0.90273313  0.52686494    -0.11300
C781        C  0.63076128  0.92723056  0.51327323     0.03400
C782        C  0.96600187  0.92887711  0.48157205    -0.10700
H783        H  0.96239243  0.86439528  0.46440545     0.09000
H784        H  0.62553684  0.90121791  0.55124166     0.06500
H785        H  0.96933738  0.94766609  0.47082760     0.06400
C786        C  0.96134071  0.71251910  0.62631278     0.03400
C787        C  0.92084193  0.70074617  0.63486060    -0.12700
C788        C  0.92075528  0.67753372  0.65150495     0.00900
C789        C  0.96175027  0.66596338  0.65933670    -0.11300
C790        C  0.66914662  0.67761680  0.65120576     0.03400
C791        C  0.66869098  0.70084153  0.63463789    -0.10700
H792        H  0.88933278  0.70964244  0.62837935     0.09000
H793        H  0.96198572  0.64804682  0.67218306     0.06500
H794        H  0.70002046  0.71006855  0.62858695     0.06400
O795        O  0.93316901  0.89448358  0.14733698    -0.57500
C796        C  0.72838930  0.90449408  0.15459979     0.75100
O797        O  0.99630171  0.97590442  0.16434164    -0.58700
C798        C  0.89579199  0.90397356  0.15468079     0.75100
C799        C  0.97700814  0.92573769  0.23699503     0.77500
Cd800      Cd  0.97902144  0.92884428  0.17169692     1.37500
O801        O  0.69070330  0.89392145  0.14948550    -0.57500
O802        O  0.99575109  0.90898196  0.22069131    -0.56300
C803        C  0.98062388  0.97682824  0.13762150     0.77400
O804        O  0.95905300  0.94461808  0.22316625    -0.58700
O805        O  0.72772050  0.92645611  0.16736777    -0.57200
O806        O  0.89720557  0.92464547  0.17004486    -0.57100
O807        O  0.96486547  0.95584552  0.12720115    -0.56300
C808        C  0.81081350  0.85633380  0.12208381     0.03400
C809        C  0.85177760  0.86827387  0.12971611    -0.12700
C810        C  0.85271406  0.89171115  0.14587354     0.00900
C811        C  0.81212227  0.90342139  0.15385445    -0.11300
C812        C  0.77088726  0.89188992  0.14613876     0.03400
C813        C  0.77053948  0.86824221  0.13043750    -0.10700
H814        H  0.88289268  0.85895588  0.12370142     0.09000
H815        H  0.81261518  0.92154902  0.16620428     0.06500
H816        H  0.73888647  0.85914940  0.12441026     0.08400
C817        C  0.80655260  0.65738329  0.97045486     0.03400
C818        C  0.80966093  0.68178432  0.98446617    -0.12700
C819        C  0.81209048  0.68368075  0.01610262     0.00900
C820        C  0.81304435  0.66093177  0.03355431    -0.11300
C821        C  0.80985531  0.63647192  0.01988083     0.03400
C822        C  0.80635710  0.63490837  0.98831489    -0.10700
H823        H  0.80833735  0.69925977  0.97083954     0.09000
H824        H  0.81644775  0.66234811  0.05791644     0.06500
H825        H  0.80337961  0.61612857  0.97752151     0.06400
O826        O  0.84050616  0.67550870  0.65406174    -0.57500
C827        C  0.71200446  0.66569966  0.66041396     0.75100
O828        O  0.79123630  0.59387980  0.67256555    -0.58700
C829        C  0.87804503  0.66551150  0.66089707     0.75100
C830        C  0.79711459  0.64353351  0.74374079     0.77500
Cd831      Cd  0.79527950  0.64182087  0.67841529     1.37500
O832        O  0.74906112  0.67732079  0.65744197    -0.57500
O833        O  0.81776031  0.66000477  0.72788140    -0.56300
C834        C  0.80113425  0.59412548  0.64482382     0.77400
O835        O  0.77578787  0.62615888  0.72942331    -0.58700
O836        O  0.71362192  0.64326219  0.67182190    -0.57200
O837        O  0.87709892  0.64469278  0.67623380    -0.57100
O838        O  0.80853055  0.61610587  0.63323367    -0.56300
C839        C  0.79785804  0.21124398  0.62101695     0.03400
C840        C  0.75702553  0.19900379  0.62771524    -0.12700
C841        C  0.75641320  0.17495332  0.64267523     0.00900
C842        C  0.79713013  0.16315636  0.65082609    -0.11300
C843        C  0.83811319  0.17523068  0.64435036     0.03400
C844        C  0.83817637  0.19924361  0.62944925    -0.10700
H845        H  0.72578951  0.20819583  0.62118534     0.09000
H846        H  0.79694093  0.14465382  0.66248245     0.06500
H847        H  0.86968764  0.20889900  0.62484326     0.06400
C848        C  0.81894239  0.41004712  0.47004936     0.03400
C849        C  0.81517115  0.43284785  0.48723081    -0.12700
C850        C  0.81163456  0.43188400  0.51888464     0.00900
C851        C  0.81076124  0.40762736  0.53326374    -0.11300
C852        C  0.81322796  0.38459064  0.51654828     0.03400
C853        C  0.81799590  0.38594655  0.48500593    -0.10700
H854        H  0.81395720  0.45144230  0.47584929     0.09000
H855        H  0.80933465  0.40658950  0.55769447     0.06500
H856        H  0.82057830  0.36819854  0.47212534     0.06400
O857        O  0.86386285  0.39080317  0.15415370    -0.57500
C858        C  0.73490255  0.40218519  0.15852057     0.75100
O859        O  0.83665466  0.44260612  0.22818176    -0.58700
C860        C  0.90115769  0.40212009  0.15810228     0.75100
C861        C  0.81482571  0.47285232  0.14349722     0.77500
Cd862      Cd  0.81872670  0.42521218  0.17702575     1.37500
O863        O  0.77194228  0.39097325  0.15437127    -0.57500
O864        O  0.82702613  0.45178613  0.13164021    -0.56300
C865        C  0.82353409  0.42274209  0.24247100     0.77400
O866        O  0.80435715  0.47196226  0.17115449    -0.58700
O867        O  0.73663483  0.42403734  0.17151464    -0.57200
O868        O  0.90018288  0.42397372  0.17104680    -0.57100
O869        O  0.80863832  0.40422827  0.22653401    -0.56300
C870        C  0.98390403  0.35633865  0.12190377     0.03400
C871        C  0.69135549  0.36767868  0.13120409    -0.12700
C872        C  0.69196446  0.39037183  0.14874466     0.00900
C873        C  0.98463189  0.40170618  0.15701979    -0.11300
C874        C  0.94362636  0.39042431  0.14833402     0.03400
C875        C  0.94349899  0.36781224  0.13067282    -0.10700
H876        H  0.72264328  0.35899531  0.12440040     0.09000
H877        H  0.98489921  0.41912925  0.17068348     0.06500
H878        H  0.91194507  0.35889994  0.12406578     0.06400
C879        C  0.98247852  0.16080366  0.96167126     0.03400
C880        C  0.98329825  0.13848281  0.98002491    -0.12700
C881        C  0.98212686  0.14026551  0.01174151     0.00900
C882        C  0.98190892  0.16496668  0.02503970    -0.11300
C883        C  0.98286294  0.18755689  0.00719236     0.03400
C884        C  0.98269060  0.18532054  0.97552622    -0.10700
H885        H  0.98510202  0.11958679  0.96948727     0.09000
H886        H  0.97970545  0.16673782  0.04937233     0.06500
H887        H  0.98224972  0.20269175  0.96172842     0.06400
O888        O  0.67622493  0.17342784  0.64586480    -0.57500
C889        C  0.88084278  0.16295570  0.65322212     0.75100
O890        O  0.97852313  0.09194617  0.66561712    -0.58700
C891        C  0.71354954  0.16255176  0.65083975     0.75100
C892        C  0.96557600  0.14400563  0.73479536     0.77500
Cd893      Cd  0.96440938  0.13920701  0.66982716     1.37500
O894        O  0.91816408  0.17281775  0.64613907    -0.57500
O895        O  0.98146215  0.16139007  0.71780141    -0.56300
C896        C  0.96522763  0.09029243  0.63838799     0.77400
O897        O  0.94925607  0.12422575  0.72174037    -0.58700
O898        O  0.88217599  0.14204466  0.66822395    -0.57200
O899        O  0.71232273  0.14063902  0.66377100    -0.57100
O900        O  0.95205452  0.11111290  0.62608735    -0.56300
C901        C  0.96616376  0.14665522  0.76804908    -0.01000
C902        C  0.94273082  0.12892970  0.78593080    -0.09000
C903        C  0.94362443  0.13090131  0.81736910    -0.17900
C904        C  0.96848187  0.15071143  0.83209538     0.04500
C905        C  0.99192786  0.16883441  0.81381169     0.18700
C906        C  0.99035023  0.16675414  0.78212473    -0.19300
C907        C  0.01718661  0.18873590  0.82726905    -0.20500
C908        C  0.02025245  0.19081161  0.85859599    -0.19100
C909        C  0.99784394  0.17316003  0.87725035     0.20100
C910        C  0.97128926  0.15300634  0.86425589     0.02200
C911        C  0.94876807  0.13595933  0.88404280    -0.13800
C912        C  0.95266422  0.13867739  0.91529180    -0.11500
C913        C  0.97934504  0.15827796  0.92815515     0.01800
C914        C  0.00184162  0.17552078  0.90887745    -0.23700
H915        H  0.92354488  0.11336348  0.77557084     0.09800
H916        H  0.92481264  0.11642114  0.82941683     0.13300
H917        H  0.00858531  0.18059968  0.76841859     0.12100
H918        H  0.70170704  0.20266575  0.81346699     0.13300
H919        H  0.04035962  0.20631452  0.86830218     0.12300
H920        H  0.92750573  0.12040366  0.87618776     0.09400
H921        H  0.93392337  0.12548861  0.92948690     0.12600
H922        H  0.02287821  0.19066746  0.91845786     0.14500
C923        C  0.98351532  0.33224622  0.10355270    -0.01000
C924        C  0.95441795  0.32956948  0.07863774    -0.09000
C925        C  0.95372476  0.30678710  0.06152123    -0.17900
C926        C  0.98210016  0.28574404  0.06898742     0.04500
C927        C  0.01120660  0.28854960  0.09449897     0.18700
C928        C  0.01188327  0.31164299  0.11123868    -0.19300
C929        C  0.70591580  0.26819908  0.10342423    -0.20500
C930        C  0.70557573  0.24493514  0.08770175    -0.19100
C931        C  0.01088034  0.24153632  0.06245122     0.20100
C932        C  0.98239366  0.26193092  0.05241321     0.02200
C933        C  0.95555317  0.25749249  0.02629657    -0.13800
C934        C  0.95626712  0.23360093  0.01136170    -0.11500
C935        C  0.98355031  0.21339574  0.02194934     0.01800
C936        C  0.01113249  0.21768771  0.04729338    -0.23700
H937        H  0.93232633  0.34529869  0.07217886     0.09800
H938        H  0.93037815  0.30617099  0.04276476     0.13300
H939        H  0.70062628  0.31338783  0.13079117     0.12100
H940        H  0.72806626  0.27021312  0.12288538     0.13300
H941        H  0.72742673  0.22946198  0.09537318     0.12300
H942        H  0.93358644  0.27203594  0.01692066     0.09400
H943        H  0.93457501  0.23074075  0.99183423     0.12600
H944        H  0.69972823  0.20233521  0.05524698     0.14500
C945        C  0.82281522  0.41158935  0.43651449    -0.01000
C946        C  0.84712188  0.43178915  0.42302434    -0.09000
C947        C  0.84887595  0.43429772  0.39162219    -0.17900
C948        C  0.82667438  0.41638165  0.37241977     0.04500
C949        C  0.80358545  0.39532307  0.38612889     0.18700
C950        C  0.80148761  0.39327520  0.41776695    -0.19300
C951        C  0.78245854  0.37647030  0.36819015    -0.20500
C952        C  0.78367321  0.37807344  0.33683896    -0.19100
C953        C  0.80525035  0.39885779  0.32263314     0.20100
C954        C  0.82669196  0.41849229  0.34016703     0.02200
C955        C  0.84663586  0.43951883  0.32461017    -0.13800
C956        C  0.84565022  0.44080390  0.29303417    -0.11500
C957        C  0.82504833  0.42120066  0.27590336     0.01800
C958        C  0.80506646  0.40023349  0.29090944    -0.23700
H959        H  0.86510374  0.44579526  0.43682223     0.09800
H960        H  0.86826113  0.45033489  0.38310113     0.13300
H961        H  0.78226233  0.37764037  0.42773904     0.12100
H962        H  0.76500343  0.36029017  0.37848451     0.13300
H963        H  0.76716134  0.36308346  0.32359787     0.12300
H964        H  0.86272519  0.45546449  0.33617001     0.09400
H965        H  0.86110454  0.45727531  0.28198294     0.12600
H966        H  0.78867888  0.38506078  0.27786408     0.14500
C967        C  0.79867290  0.23682217  0.60579320    -0.01000
C968        C  0.77016155  0.25662237  0.61517653    -0.09000
C969        C  0.77152335  0.28099820  0.60151619    -0.17900
C970        C  0.80154173  0.28632977  0.57773815     0.04500
C971        C  0.83035883  0.26609265  0.56826355     0.18700
C972        C  0.82871898  0.24169776  0.58231647    -0.19300
C973        C  0.86059900  0.27028342  0.54479117    -0.20500
C974        C  0.86289647  0.29423303  0.53042068    -0.19100
C975        C  0.83497075  0.31455133  0.53915815     0.20100
C976        C  0.80390397  0.31092973  0.56296622     0.02200
C977        C  0.77639609  0.33206467  0.57081775    -0.13800
C978        C  0.77950194  0.35567474  0.55561248    -0.11500
C979        C  0.81023608  0.35920405  0.53224930     0.01800
C980        C  0.83790934  0.33851525  0.52415136    -0.23700
H981        H  0.74714701  0.25337409  0.63357818     0.09800
H982        H  0.74870738  0.29520333  0.61019248     0.13300
H983        H  0.85063252  0.22634149  0.57477329     0.12100
H984        H  0.88261890  0.25491357  0.53746786     0.13300
H985        H  0.88661813  0.29686145  0.51228900     0.12300
H986        H  0.75191019  0.33101514  0.58846676     0.09400
H987        H  0.75724849  0.37122416  0.56200036     0.12600
H988        H  0.86220140  0.34115400  0.50636315     0.14500
C989        C  0.80381444  0.57027979  0.62657234    -0.01000
C990        C  0.82562245  0.57097520  0.59874828    -0.09000
C991        C  0.82779336  0.54896485  0.58065603    -0.17900
C992        C  0.80763556  0.52540064  0.58970547     0.04500
C993        C  0.78435829  0.52494678  0.61759026     0.18700
C994        C  0.78341186  0.54715182  0.63600548    -0.19300
C995        C  0.76157673  0.50248759  0.62660654    -0.20500
C996        C  0.76097000  0.48055283  0.60830579    -0.19100
C997        C  0.78457385  0.48021927  0.58111934     0.20100
C998        C  0.80912987  0.50244006  0.57180805     0.02200
C999        C  0.83479436  0.50058319  0.54525225    -0.13800
C1000       C  0.83537179  0.47781117  0.52837078    -0.11500
C1001       C  0.80994057  0.45617552  0.53695715     0.01800
C1002       C  0.78434775  0.45764038  0.56337692    -0.23700
H1003       H  0.84122360  0.58870710  0.59085196     0.09800
H1004       H  0.84460497  0.55124096  0.55938535     0.13300
H1005       H  0.76575780  0.54663129  0.65729585     0.12100
H1006       H  0.74352183  0.50201388  0.64772644     0.13300
H1007       H  0.74249070  0.46359610  0.61569884     0.12300
H1008       H  0.85588715  0.51612828  0.53735267     0.09400
H1009       H  0.85668202  0.47703920  0.50874871     0.12600
H1010       H  0.76426420  0.44115214  0.57029100     0.14500
C1011       C  0.80939417  0.61259679  0.03854557    -0.01000
C1012       C  0.78640170  0.61200806  0.06596192    -0.09000
C1013       C  0.78589643  0.58967015  0.08370826    -0.17900
C1014       C  0.80824171  0.56696658  0.07442124     0.04500
C1015       C  0.83041990  0.56743514  0.04615343     0.18700
C1016       C  0.83130787  0.59017866  0.02879863    -0.19300
C1017       C  0.85159297  0.54521021  0.03532574    -0.20500
C1018       C  0.85145100  0.52243171  0.05211929    -0.19100
C1019       C  0.83086704  0.52151828  0.08037124     0.20100
C1020       C  0.80925449  0.54381378  0.09207701     0.02200
C1021       C  0.79015291  0.54204659  0.12113729    -0.13800
C1022       C  0.79218351  0.51906000  0.13771667    -0.11500
C1023       C  0.81295844  0.49711167  0.12588893     0.01800
C1024       C  0.83213122  0.49843706  0.09715661    -0.23700
H1025       H  0.76812137  0.62881926  0.07361327     0.09800
H1026       H  0.76717929  0.59074801  0.10433428     0.13300
H1027       H  0.84955006  0.59045512  0.00774616     0.12100
H1028       H  0.86823620  0.54541722  0.01367015     0.13300
H1029       H  0.86799631  0.50549344  0.04309967     0.12300
H1030       H  0.77390752  0.55812044  0.13190645     0.09400
H1031       H  0.77721884  0.51846059  0.15991105     0.12600
H1032       H  0.84862248  0.48154058  0.08795810     0.14500
C1033       C  0.80326267  0.65514534  0.93717984    -0.01000
C1034       C  0.77272217  0.63783123  0.92376586    -0.09000
C1035       C  0.77055191  0.63497894  0.89243083    -0.17900
C1036       C  0.79915697  0.64943165  0.87341579     0.04500
C1037       C  0.82986038  0.66708652  0.88724864     0.18700
C1038       C  0.83158582  0.66976971  0.91877187    -0.19300
C1039       C  0.85880979  0.68196404  0.86957605    -0.20500
C1040       C  0.85764238  0.67997575  0.83828817    -0.19100
C1041       C  0.82770622  0.66292769  0.82393261     0.20100
C1042       C  0.79831907  0.64716453  0.84123475     0.02200
C1043       C  0.76947523  0.62986720  0.82550377    -0.13800
C1044       C  0.76942799  0.62862830  0.79397076    -0.11500
C1045       C  0.79785528  0.64458097  0.77710232     0.01800
C1046       C  0.82700322  0.66161713  0.79225854    -0.23700
H1047       H  0.75010793  0.62654219  0.93760123     0.09800
H1048       H  0.74603535  0.62139694  0.88384763     0.13300
H1049       H  0.85564327  0.68297187  0.92908322     0.12100
H1050       H  0.88237147  0.69536501  0.88002380     0.13300
H1051       H  0.88030481  0.69190305  0.82520698     0.12300
H1052       H  0.74659353  0.61701311  0.83684845     0.09400
H1053       H  0.74670768  0.61523571  0.78273023     0.12600
H1054       H  0.84940207  0.67387833  0.77935874     0.14500
C1055       C  0.81095814  0.70922043  0.03132956    -0.01000
C1056       C  0.78278752  0.71271958  0.05604638    -0.09000
C1057       C  0.78138293  0.73632392  0.07119014    -0.17900
C1058       C  0.80843267  0.75744341  0.06212086     0.04500
C1059       C  0.83662123  0.75396376  0.03672637     0.18700
C1060       C  0.83754368  0.73001029  0.02154851    -0.19300
C1061       C  0.86376394  0.77438291  0.02673203    -0.20500
C1062       C  0.86345871  0.79825069  0.04138018    -0.19100
C1063       C  0.83622655  0.80224261  0.06651182     0.20100
C1064       C  0.80840821  0.78186159  0.07731498     0.02200
C1065       C  0.78193449  0.78677478  0.10299310    -0.13800
C1066       C  0.78274249  0.81091425  0.11710741    -0.11500
C1067       C  0.80999711  0.83095833  0.10636193     0.01800
C1068       C  0.83676817  0.82649105  0.08104909    -0.23700
H1069       H  0.76125728  0.69708752  0.06360433     0.09800
H1070       H  0.75860773  0.73733969  0.08983109     0.13300
H1071       H  0.85948823  0.72739645  0.00243180     0.12100
H1072       H  0.88535618  0.77188956  0.00742439     0.13300
H1073       H  0.88481341  0.81367761  0.03305440     0.12300
H1074       H  0.76041230  0.77238474  0.11294048     0.09400
H1075       H  0.76236892  0.81380603  0.13692541     0.12600
H1076       H  0.85782772  0.84199843  0.07254928     0.14500
C1077       C  0.97997289  0.11633109  0.03074173    -0.01000
C1078       C  0.95604834  0.09455604  0.02041530    -0.09000
C1079       C  0.95477869  0.07172681  0.03731169    -0.17900
C1080       C  0.97709303  0.06984173  0.06558641     0.04500
C1081       C  0.99939433  0.09229412  0.07683879     0.18700
C1082       C  0.00121368  0.11506272  0.05926652    -0.19300
C1083       C  0.68644388  0.09184024  0.10553541    -0.20500
C1084       C  0.68547849  0.06945241  0.12319937    -0.19100
C1085       C  0.99851321  0.04673496  0.11227969     0.20100
C1086       C  0.97778102  0.04655481  0.08314414     0.02200
C1087       C  0.95936506  0.02292034  0.07258138    -0.13800
C1088       C  0.96068689  0.00059604  0.09034431    -0.11500
C1089       C  0.98024486  0.00089576  0.11928489     0.01800
C1090       C  0.99918489  0.02407869  0.13014853    -0.23700
H1091       H  0.93769390  0.09515700  0.99916488     0.09800
H1092       H  0.93536235  0.05602434  0.02776530     0.13300
H1093       H  0.68650759  0.13167165  0.06771427     0.12100
H1094       H  0.70309157  0.10896516  0.11444579     0.13300
H1095       H  0.70134811  0.06979391  0.14536742     0.12300
H1096       H  0.94428868  0.02086965  0.05044577     0.09400
H1097       H  0.94618803  0.98292321  0.08125848     0.12600
H1098       H  0.68145245  0.02445679  0.15241343     0.14500
C1099       C  0.96534605  0.95091021  0.53240192    -0.01000
C1100       C  0.65506872  0.95092217  0.56024689    -0.09000
C1101       C  0.65532416  0.97278779  0.57879283    -0.17900
C1102       C  0.96617421  0.99568125  0.56990240     0.04500
C1103       C  0.94357117  0.99573017  0.54138602     0.18700
C1104       C  0.94302574  0.97347276  0.52318483    -0.19300
C1105       C  0.92166601  0.01802861  0.53107811    -0.20500
C1106       C  0.92195215  0.04045431  0.54836533    -0.19100
C1107       C  0.94370467  0.04104484  0.57654226     0.20100
C1108       C  0.96572063  0.01862530  0.58799082     0.02200
C1109       C  0.65294125  0.02026963  0.61697047    -0.13800
C1110       C  0.65241295  0.04339635  0.63344804    -0.11500
C1111       C  0.96490874  0.06554055  0.62159789     0.01800
C1112       C  0.94368788  0.06410527  0.59324541    -0.23700
H1113       H  0.67351734  0.93398923  0.56769491     0.09800
H1114       H  0.67389793  0.97124185  0.59975415     0.13300
H1115       H  0.92460747  0.97366058  0.50191006     0.12100
H1116       H  0.90448184  0.01820156  0.50934848     0.13300
H1117       H  0.90500940  0.05749233  0.53960858     0.12300
H1118       H  0.66962475  0.00406595  0.62753467     0.09400
H1119       H  0.66879188  0.04400648  0.65542883     0.12600
H1120       H  0.92700661  0.08107369  0.58404354     0.14500
C1121       C  0.96704947  0.90844051  0.43014059    -0.01000
C1122       C  0.66035011  0.89146724  0.41352292    -0.09000
C1123       C  0.99618445  0.89352866  0.38212417    -0.17900
C1124       C  0.97204287  0.91284557  0.36612078     0.04500
C1125       C  0.94470454  0.92989909  0.38302852     0.18700
C1126       C  0.94244144  0.92755429  0.41464965    -0.19300
C1127       C  0.91988392  0.94925384  0.36830323    -0.20500
C1128       C  0.92181417  0.95218134  0.33706524    -0.19100
C1129       C  0.94862193  0.93583120  0.31975501     0.20100
C1130       C  0.97411067  0.91589726  0.33402864     0.02200
C1131       C  0.00064735  0.89992781  0.31553200    -0.13800
C1132       C  0.00151089  0.90343864  0.28429455    -0.11500
C1133       C  0.97625205  0.92298340  0.27028752     0.01800
C1134       C  0.95001125  0.93924428  0.28818716    -0.23700
H1135       H  0.68006389  0.87672417  0.42492381     0.09800
H1136       H  0.68422573  0.87975993  0.37112745     0.13300
H1137       H  0.92116033  0.94054980  0.42723686     0.12100
H1138       H  0.89890066  0.96228353  0.38105306     0.13300
H1139       H  0.90223992  0.96737865  0.32637617     0.12300
H1140       H  0.68779711  0.88447988  0.32442171     0.09400
H1141       H  0.68887305  0.89067316  0.27100269     0.12600
H1142       H  0.93027306  0.95439781  0.27752884     0.14500
C1143       C  0.95818888  0.85461387  0.52494255    -0.01000
C1144       C  0.92705179  0.85101985  0.54799442    -0.09000
C1145       C  0.92634027  0.82822714  0.56486136    -0.17900
C1146       C  0.95706889  0.80807632  0.55925862     0.04500
C1147       C  0.65435467  0.81139266  0.53511511     0.18700
C1148       C  0.65466071  0.83455007  0.51822557    -0.19300
C1149       C  0.68463365  0.79166637  0.52819087    -0.20500
C1150       C  0.68491630  0.76859348  0.54458413    -0.19100
C1151       C  0.65549233  0.76488106  0.56866345     0.20100
C1152       C  0.95824863  0.78472931  0.57662383     0.02200
C1153       C  0.93041069  0.78043942  0.60182192    -0.13800
C1154       C  0.93188021  0.75715731  0.61779667    -0.11500
C1155       C  0.96101702  0.73733960  0.60935254     0.01800
C1156       C  0.65643528  0.74141974  0.58489933    -0.23700
H1157       H  0.90317099  0.86610148  0.55316070     0.09800
H1158       H  0.90117095  0.82703236  0.58206602     0.13300
H1159       H  0.67892192  0.83727256  0.50041757     0.12100
H1160       H  0.70808813  0.79403561  0.50985099     0.13300
H1161       H  0.70849793  0.75360557  0.53850002     0.12300
H1162       H  0.90737756  0.79474571  0.61002754     0.09400
H1163       H  0.91027364  0.75473124  0.63712138     0.12600
H1164       H  0.67917290  0.72616711  0.57824185     0.14500
loop_ 
_geom_bond_atom_site_label_1 
_geom_bond_atom_site_label_2 
_geom_bond_distance 
_geom_bond_site_symmetry_2 
_ccdc_geom_bond_type 
C1            C2   1.408       .  A
C1            C6   1.407       .  A
C1          C345   1.487       .  S
C2          C391   1.403       .  A
C2            H7   1.083       .  S
C3            C4   1.401       .  A
C3          C778   1.403       .  A
C3         C1143   1.480       .  S
C4            C5   1.401       .  A
C4            H8   1.083       .  S
C5          C782   1.406       .  A
C5         C1099   1.487       .  S
C6          C393   1.406       .  A
C6            H9   1.083       .  S
C10          C11   1.406       .  A
C10         C403   1.403       .  A
C10         C379   1.482       .  S
C11          C12   1.404       .  A
C11          H16   1.083       .  S
C12          C13   1.403       .  A
C12          C53   1.479       .  S
C13         C402   1.404       .  A
C13          H17   1.083       .  S
C14          C15   1.402       .  A
C14         C789   1.404   1_455  A
C14          C51   1.474       .  S
C15         C786   1.403   1_455  A
C15          H18   1.084       .  S
O19          C22   1.266       .  A
O19         Cd24   2.475       .  S
C20          C36   1.480       .  S
C20          O29   1.266       .  A
C20          O25   1.266       .  A
O21          C27   1.267       .  A
O21         Cd24   2.500       .  S
C22          C34   1.479       .  S
C22          O30   1.265       .  A
C23         C357   1.479       .  S
C23          O28   1.266       .  A
C23          O26   1.263       .  A
Cd24         O31   2.442       .  S
Cd24         O30   2.451       .  S
Cd24         O28   2.498       .  S
Cd24         O26   2.442       .  S
Cd24        O417   2.462       .  S
Cd24        O413   2.464       .  S
O25        Cd800   2.464   1_455  S
C27         C313   1.481   1_565  S
C27          O31   1.264       .  A
O29        Cd800   2.462   1_455  S
C32          C33   1.405       .  A
C32          C37   1.406       .  A
C32         C291   1.483       .  S
C33          C34   1.405       .  A
C33          H38   1.084       .  S
C34          C35   1.405       .  A
C35          C36   1.404       .  A
C35          H39   1.083       .  S
C36          C37   1.404       .  A
C37          H40   1.084       .  S
C41          C42   1.406       .  A
C41          C46   1.401       .  A
C41         C257   1.478       .  S
C42          C43   1.404   1_556  A
C42          H47   1.083       .  S
C43          C44   1.403       .  A
C43         C279   1.481       .  S
C44          C45   1.402       .  A
C44          H48   1.083       .  S
C45          C46   1.401   1_554  A
C45         C235   1.481       .  S
C46          H49   1.083       .  S
O50          C53   1.268       .  A
O50         Cd55   2.451       .  S
C51          O60   1.262       .  A
C51          O56   1.264       .  A
O52          C58   1.265       .  A
O52         Cd55   2.488       .  S
C53          O61   1.269       .  A
C54         C269   1.476       .  S
C54          O59   1.264       .  A
C54          O57   1.263       .  A
Cd55         O62   2.437       .  S
Cd55         O61   2.449       .  S
Cd55         O60   2.453       .  S
Cd55         O56   2.469       .  S
Cd55         O59   2.469       .  S
Cd55         O57   2.466       .  S
C58         C213   1.475       .  S
C58          O62   1.262       .  A
C63          C64   1.405       .  A
C63          C68   1.402       .  A
C63         C191   1.480       .  S
C64          C65   1.404       .  A
C64          H69   1.084       .  S
C65          C66   1.404       .  A
C65         C115   1.476       .  S
C66          C67   1.403       .  A
C66          H70   1.083       .  S
C67          C68   1.401       .  A
C67         C113   1.475       .  S
C68          H71   1.084       .  S
C72          C73   1.406       .  A
C72          C77   1.407       .  A
C72         C169   1.491       .  S
C73          C74   1.406       .  A
C73          H78   1.082       .  S
C74          C75   1.402       .  A
C74         C225   1.488       .  S
C75          C76   1.403       .  A
C75          H79   1.083       .  S
C76          C77   1.405       .  A
C76         C203   1.483       .  S
C77          H80   1.082       .  S
O81          C84   1.265       .  A
O81         Cd86   2.458       .  S
C82          C96   1.477       .  S
C82          O91   1.266       .  A
C82          O87   1.265       .  A
O83          C89   1.265       .  A
O83         Cd86   2.487       .  S
C84          C98   1.476       .  S
C84          O92   1.265       .  A
C85         C247   1.473       .  S
C85          O90   1.266       .  A
C85          O88   1.264       .  A
Cd86         O93   2.461       .  S
Cd86         O92   2.450       .  S
Cd86         O91   2.460       .  S
Cd86         O87   2.454       .  S
Cd86         O90   2.462       .  S
Cd86         O88   2.442       .  S
C89         C181   1.480       .  S
C89          O93   1.264       .  A
C94          C99   1.405       .  A
C94         C483   1.406       .  A
C94         C147   1.485       .  S
C95          C96   1.405       .  A
C95         C870   1.406   1_455  A
C95         H100   1.083       .  S
C96         C873   1.402   1_455  A
C97          C98   1.403       .  A
C97         C484   1.402       .  A
C97         H101   1.083       .  S
C98          C99   1.404       .  A
C99         H102   1.084       .  S
C103        C104   1.407       .  A
C103        C108   1.406       .  A
C103        C137   1.490       .  S
C104        C105   1.406   1_556  A
C104        H109   1.082       .  S
C105        C106   1.404       .  A
C105        C301   1.493       .  S
C106        C107   1.406       .  A
C106        H110   1.083       .  S
C107        C108   1.405   1_554  A
C107        C159   1.484       .  S
C108        H111   1.083       .  S
O112        C115   1.266       .  A
O112       Cd893   2.461   1_455  S
C113        O122   1.265       .  A
C113        O118   1.265       .  A
O114        C120   1.266       .  A
O114       Cd117   2.482       .  S
C115        O123   1.266       .  A
C116        C125   1.477       .  S
C116        O121   1.266       .  A
C116        O119   1.263       .  A
Cd117       O124   2.442       .  S
Cd117       O122   2.460       .  S
Cd117       O118   2.446       .  S
Cd117       O121   2.467       .  S
Cd117       O119   2.459       .  S
Cd117       O500   2.461       .  S
Cd117       O511   2.444       .  S
C120        C335   1.477       .  S
C120        O124   1.264       .  A
O123       Cd893   2.444   1_455  S
C125        C126   1.398       .  A
C125        C130   1.403       .  A
C126        C127   1.394       .  A
C126        H139   1.083       .  S
C127        C128   1.415       .  A
C127        H140   1.076       .  S
C128        C134   1.429       .  A
C128        C129   1.422       .  A
C129        C131   1.400       .  A
C129        C130   1.406       .  A
C130        H141   1.084       .  S
C131        C132   1.391       .  A
C131        H530   1.084       .  S
C132        C133   1.400       .  A
C132        H143   1.084       .  S
C133        C134   1.422       .  A
C133        C138   1.408       .  A
C134        C135   1.413       .  A
C135        C136   1.393       .  A
C135        H144   1.076       .  S
C136        C137   1.401       .  A
C136        H145   1.083       .  S
C137        C138   1.405       .  A
C138        H146   1.084       .  S
H142        C907   1.084       .  S
C147        C148   1.402       .  A
C147        C152   1.400       .  A
C148        C149   1.398       .  A
C148        H161   1.083       .  S
C149        C150   1.415       .  A
C149        H162   1.077       .  S
C150        C156   1.431       .  A
C150        C151   1.423       .  A
C151        C152   1.403       .  A
C151        C541   1.398       .  A
C152        H551   1.085       .  S
C153        C154   1.387       .  A
C153        C927   1.398       .  A
C153        H164   1.084       .  S
C154        C931   1.398       .  A
C154        H165   1.084       .  S
C155        C156   1.422       .  A
C155        C160   1.402       .  A
C155        C542   1.398       .  A
C156        C157   1.416       .  A
C157        C158   1.399       .  A
C157        H166   1.077       .  S
C158        C159   1.401       .  A
C158        H167   1.083   1_554  S
C159        C160   1.400       .  A
C160        H556   1.085       .  S
H163        C928   1.085       .  S
H168        C936   1.085       .  S
C169        C170   1.403       .  A
C169        C174   1.403       .  A
C170        C171   1.396       .  A
C170        H183   1.083       .  S
C171        C172   1.414       .  A
C171        H184   1.077       .  S
C172        C178   1.430       .  A
C172        C173   1.422       .  A
C173        C175   1.399       .  A
C173        C174   1.405       .  A
C174        H185   1.084       .  S
C175        C176   1.389       .  A
C175        H186   1.084       .  S
C176        C177   1.400       .  A
C176        H187   1.084       .  S
C177        C178   1.422       .  A
C177        C182   1.404       .  A
C178        C179   1.416       .  A
C179        C180   1.398       .  A
C179        H188   1.077       .  S
C180        C181   1.400       .  A
C180        H189   1.083       .  S
C181        C182   1.402       .  A
C182        H190   1.084       .  S
C191        C192   1.398       .  A
C191        C196   1.402       .  A
C192        C193   1.394       .  A
C192        H205   1.083       .  S
C193        C194   1.415       .  A
C193        H206   1.076       .  S
C194        C200   1.427       .  A
C194        C195   1.422       .  A
C195        C197   1.399       .  A
C195        C196   1.403       .  A
C196        H207   1.085       .  S
C197        C198   1.389       .  A
C197        H208   1.084       .  S
C198        C199   1.399       .  A
C198        H209   1.084       .  S
C199        C200   1.423       .  A
C199        C204   1.404       .  A
C200        C201   1.413       .  A
C201        C202   1.393       .  A
C201        H210   1.077       .  S
C202        C203   1.401       .  A
C202        H211   1.083       .  S
C203        C204   1.401       .  A
C204        H212   1.084       .  S
C213        C214   1.399       .  A
C213        C218   1.402       .  A
C214        C215   1.392       .  A
C214        H227   1.083       .  S
C215        C216   1.413       .  A
C215        H228   1.077       .  S
C216        C222   1.426       .  A
C216        C217   1.422       .  A
C217        C219   1.400       .  A
C217        C218   1.407       .  A
C218        H229   1.084       .  S
C219        C220   1.392       .  A
C219        H230   1.084       .  S
C220        C221   1.401       .  A
C220        H231   1.084       .  S
C221        C222   1.420       .  A
C221        C226   1.405       .  A
C222        C223   1.413       .  A
C223        C224   1.393       .  A
C223        H232   1.077       .  S
C224        C225   1.401       .  A
C224        H233   1.083       .  S
C225        C226   1.406       .  A
C226        H234   1.084       .  S
C235        C236   1.400       .  A
C235        C240   1.401       .  A
C236        C237   1.392       .  A
C236        H249   1.083       .  S
C237        C238   1.414       .  A
C237        H250   1.077       .  S
C238        C244   1.425       .  A
C238        C239   1.421       .  A
C239        C241   1.399       .  A
C239        C240   1.400       .  A
C240        H251   1.084       .  S
C241        C242   1.388       .  A
C241        H252   1.084       .  S
C242        C243   1.399       .  A
C242        H253   1.084       .  S
C243        C244   1.422       .  A
C243        C248   1.402       .  A
C244        C245   1.415       .  A
C245        C246   1.393       .  A
C245        H254   1.076       .  S
C246        C247   1.398       .  A
C246        H255   1.083       .  S
C247        C248   1.401       .  A
C248        H256   1.084       .  S
C257        C258   1.401       .  A
C257        C262   1.398       .  A
C258        C259   1.394       .  A
C258        H271   1.083       .  S
C259        C260   1.414       .  A
C259        H272   1.077       .  S
C260        C266   1.428       .  A
C260        C261   1.423       .  A
C261        C263   1.398       .  A
C261        C262   1.401       .  A
C262        H273   1.085       .  S
C263        C264   1.388       .  A
C263        H274   1.084       .  S
C264        C265   1.399       .  A
C264        H275   1.084       .  S
C265        C266   1.422       .  A
C265        C270   1.402       .  A
C266        C267   1.415       .  A
C267        C268   1.396       .  A
C267        H276   1.077       .  S
C268        C269   1.400       .  A
C268        H277   1.083       .  S
C269        C270   1.400       .  A
C270        H278   1.084       .  S
C279        C280   1.399       .  A
C279        C284   1.402       .  A
C280        C281   1.391       .  A
C280        H293   1.084       .  S
C281        C282   1.413       .  A
C281        H294   1.076       .  S
C282        C288   1.428       .  A
C282        C283   1.423       .  A
C283        C285   1.400       .  A
C283        C284   1.407       .  A
C284        H295   1.084       .  S
C285        C286   1.392       .  A
C285        H296   1.084       .  S
C286        C287   1.401       .  A
C286        H297   1.084       .  S
C287        C288   1.422       .  A
C287        C292   1.407       .  A
C288        C289   1.415       .  A
C289        C290   1.393       .  A
C289        H298   1.076       .  S
C290        C291   1.398       .  A
C290        H299   1.083       .  S
C291        C292   1.403       .  A
C292        H300   1.084       .  S
C301        C302   1.402       .  A
C301        C306   1.407       .  A
C302        C303   1.393       .  A
C302        H315   1.083   1_554  S
C303        C304   1.413       .  A
C303        H316   1.078       .  S
C304        C310   1.429       .  A
C304        C305   1.421       .  A
C305        C306   1.408       .  A
C305        C695   1.401       .  A
C306        H705   1.084       .  S
C307        C308   1.393       .  A
C307       C1081   1.401   1_455  A
C307        H318   1.084       .  S
C308       C1085   1.401   1_455  A
C308        H319   1.084       .  S
C309        C310   1.423       .  A
C309        C314   1.409       .  A
C309        C696   1.401       .  A
C310        C311   1.413       .  A
C311        C312   1.393       .  A
C311        H320   1.078       .  S
C312        C313   1.400       .  A
C312        H321   1.083   1_545  S
C313        C314   1.403       .  A
C314        H710   1.084       .  S
H317       C1082   1.084       .  S
H322       C1090   1.084   1_455  S
C323        C328   1.400       .  A
C323        C712   1.404       .  A
C323        C393   1.487       .  S
C324        C325   1.395       .  A
C324       C1099   1.404       .  A
C324        H337   1.083   1_655  S
C325       C1102   1.413       .  A
C325        H338   1.077   1_655  S
C326        C332   1.429   1_565  A
C326        C327   1.423       .  A
C326        C713   1.413       .  A
C327        C329   1.398   1_565  A
C327        C328   1.403       .  A
C328        H339   1.084       .  S
C329        C330   1.387       .  A
C329        H340   1.084       .  S
C330        C331   1.399       .  A
C330        H341   1.084       .  S
C331        C332   1.421       .  A
C331        C336   1.401       .  A
C332        C721   1.417       .  A
C333        C334   1.399       .  A
C333       C1108   1.417       .  A
C333        H342   1.077   1_655  S
C334       C1111   1.400       .  A
C334        H343   1.083   1_655  S
C335        C336   1.400       .  A
C335        C722   1.400       .  A
C336        H344   1.085       .  S
C345        C350   1.404       .  A
C345        C734   1.400       .  A
C346       C1121   1.400       .  A
C346       C1123   1.395       .  A
C346        H359   1.083   1_655  S
C347        C348   1.415       .  A
C347        C734   1.395       .  A
C347        H748   1.077       .  S
C348        C354   1.429       .  A
C348        C349   1.421       .  A
C349        C351   1.400       .  A
C349        C350   1.406       .  A
C350        H361   1.084       .  S
C351        C352   1.391       .  A
C351        H362   1.084       .  S
C352        C353   1.400       .  A
C352        H363   1.084       .  S
C353        C354   1.423       .  A
C353        C358   1.408       .  A
C354        C355   1.413       .  A
C355        C356   1.393       .  A
C355        H752   1.077       .  S
C356        C357   1.400       .  A
C356        H753   1.083       .  S
C357        C358   1.402       .  A
C358        H366   1.084       .  S
H360       C1123   1.077   1_455  S
H364       C1131   1.077       .  S
H365       C1132   1.083       .  S
C367        C368   1.399       .  A
C367        C760   1.402       .  A
C367        C391   1.480       .  S
C368        C369   1.391       .  A
C368        H381   1.083       .  S
C369        C370   1.413       .  A
C369        H382   1.077       .  S
C370        C376   1.427       .  A
C370        C759   1.423       .  A
C371        C373   1.400   1_655  A
C371        C372   1.407       .  A
C371       C1146   1.423       .  A
C372       C1143   1.402       .  A
C372        H383   1.085   1_655  S
C373        C374   1.392       .  A
C373        H384   1.084       .  S
C374        C375   1.401   1_455  A
C374        H385   1.084       .  S
C375        C380   1.406       .  A
C375       C1152   1.421       .  A
C376        C377   1.414       .  A
C376        C763   1.421       .  A
C377        C378   1.392       .  A
C377        H386   1.077       .  S
C378        C379   1.399       .  A
C378        H387   1.083       .  S
C379        C768   1.403       .  A
C380       C1155   1.403       .  A
C380        H388   1.084   1_655  S
C389        C390   1.408       .  A
C389        C394   1.407       .  A
C389        C733   1.487       .  S
C390        C779   1.403       .  A
C390        H395   1.083       .  S
C391        C392   1.401       .  A
C392        C393   1.401       .  A
C392        H396   1.083       .  S
C394        C781   1.406       .  A
C394        H397   1.083       .  S
C398        C399   1.406       .  A
C398        C791   1.403       .  A
C398        C767   1.482       .  S
C399        C400   1.404       .  A
C399        H404   1.083       .  S
C400        C401   1.403       .  A
C400        C441   1.479       .  S
C401        C790   1.404       .  A
C401        H405   1.083       .  S
C402        C403   1.402       .  A
C402        C439   1.474       .  S
C403        H406   1.084       .  S
O407        C410   1.266       .  A
O407       Cd412   2.475       .  S
C408        C424   1.480       .  S
C408        O417   1.266       .  A
C408        O413   1.266       .  A
O409        C415   1.267       .  A
O409       Cd412   2.500       .  S
C410        C422   1.479       .  S
C410        O418   1.265       .  A
C411        C745   1.479       .  S
C411        O416   1.266       .  A
C411        O414   1.263       .  A
Cd412       O419   2.442       .  S
Cd412       O418   2.451       .  S
Cd412       O805   2.462       .  S
Cd412       O801   2.464       .  S
Cd412       O416   2.498       .  S
Cd412       O414   2.442       .  S
C415        C701   1.481   1_565  S
C415        O419   1.264       .  A
C420        C421   1.405       .  A
C420        C425   1.406       .  A
C420        C679   1.483       .  S
C421        C422   1.405       .  A
C421        H426   1.084       .  S
C422        C423   1.405       .  A
C423        C424   1.404       .  A
C423        H427   1.083       .  S
C424        C425   1.404       .  A
C425        H428   1.084       .  S
C429        C430   1.406       .  A
C429        C434   1.401       .  A
C429        C645   1.478       .  S
C430        C431   1.404   1_556  A
C430        H435   1.083       .  S
C431        C432   1.403       .  A
C431        C667   1.481       .  S
C432        C433   1.402       .  A
C432        H436   1.083       .  S
C433        C434   1.401   1_554  A
C433        C623   1.481       .  S
C434        H437   1.083       .  S
O438        C441   1.268       .  A
O438       Cd443   2.451       .  S
C439        O448   1.262       .  A
C439        O444   1.264       .  A
O440        C446   1.265       .  A
O440       Cd443   2.488       .  S
C441        O449   1.269       .  A
C442        C657   1.476       .  S
C442        O447   1.264       .  A
C442        O445   1.263       .  A
Cd443       O450   2.437       .  S
Cd443       O449   2.449       .  S
Cd443       O448   2.453       .  S
Cd443       O444   2.469       .  S
Cd443       O447   2.469       .  S
Cd443       O445   2.466       .  S
C446        C601   1.475       .  S
C446        O450   1.262       .  A
C451        C452   1.405       .  A
C451        C456   1.402       .  A
C451        C579   1.480       .  S
C452        C453   1.404       .  A
C452        H457   1.084       .  S
C453        C454   1.404       .  A
C453        C503   1.476       .  S
C454        C455   1.403       .  A
C454        H458   1.083       .  S
C455        C456   1.401       .  A
C455        C501   1.475       .  S
C456        H459   1.084       .  S
C460        C461   1.406       .  A
C460        C465   1.407       .  A
C460        C557   1.491       .  S
C461        C462   1.406       .  A
C461        H466   1.082       .  S
C462        C463   1.402       .  A
C462        C613   1.488       .  S
C463        C464   1.403       .  A
C463        H467   1.083       .  S
C464        C465   1.405       .  A
C464        C591   1.483       .  S
C465        H468   1.082       .  S
O469        C472   1.265       .  A
O469       Cd474   2.458       .  S
C470        C484   1.477       .  S
C470        O479   1.266       .  A
C470        O475   1.265       .  A
O471        C477   1.265       .  A
O471       Cd474   2.487       .  S
C472        C486   1.476       .  S
C472        O480   1.265       .  A
C473        C635   1.473       .  S
C473        O478   1.266       .  A
C473        O476   1.264       .  A
Cd474       O481   2.461       .  S
Cd474       O480   2.450       .  S
Cd474       O479   2.460       .  S
Cd474       O475   2.454       .  S
Cd474       O478   2.462       .  S
Cd474       O476   2.442       .  S
C477        C569   1.480       .  S
C477        O481   1.264       .  A
C482        C871   1.406       .  A
C482        C487   1.405       .  A
C482        C535   1.485       .  S
C483        C484   1.405       .  A
C483        H488   1.083       .  S
C485        C872   1.402       .  A
C485        C486   1.403       .  A
C485        H489   1.083       .  S
C486        C487   1.404       .  A
C487        H490   1.084       .  S
C491        C492   1.407       .  A
C491        C496   1.406       .  A
C491        C525   1.490       .  S
C492        C493   1.406   1_556  A
C492        H497   1.082       .  S
C493        C494   1.404       .  A
C493        C689   1.493       .  S
C494        C495   1.406       .  A
C494        H498   1.083       .  S
C495        C496   1.405   1_554  A
C495        C547   1.484       .  S
C496        H499   1.083       .  S
O500        C503   1.266       .  A
C501        O510   1.265       .  A
C501        O506   1.265       .  A
O502        C508   1.266       .  A
O502       Cd505   2.482       .  S
C503        O511   1.266       .  A
C504        C513   1.477       .  S
C504        O509   1.266       .  A
C504        O507   1.263       .  A
Cd505       O888   2.461       .  S
Cd505       O512   2.442       .  S
Cd505       O899   2.444       .  S
Cd505       O510   2.460       .  S
Cd505       O506   2.446       .  S
Cd505       O509   2.467       .  S
Cd505       O507   2.459       .  S
C508        C723   1.477       .  S
C508        O512   1.264       .  A
C513        C514   1.398       .  A
C513        C518   1.403       .  A
C514        C515   1.394       .  A
C514        H527   1.083       .  S
C515        C516   1.415       .  A
C515        H528   1.076       .  S
C516        C522   1.429       .  A
C516        C517   1.422       .  A
C517        C519   1.400       .  A
C517        C518   1.406       .  A
C518        H529   1.084       .  S
C519        C520   1.391       .  A
C519        H918   1.084       .  S
C520        C521   1.400       .  A
C520        H531   1.084       .  S
C521        C522   1.422       .  A
C521        C526   1.408       .  A
C522        C523   1.413       .  A
C523        C524   1.393       .  A
C523        H532   1.076       .  S
C524        C525   1.401       .  A
C524        H533   1.083       .  S
C525        C526   1.405       .  A
C526        H534   1.084       .  S
C535        C536   1.402       .  A
C535        C540   1.400       .  A
C536        C537   1.398       .  A
C536        H549   1.083       .  S
C537        C538   1.415       .  A
C537        H550   1.077       .  S
C538        C544   1.431       .  A
C538        C539   1.423       .  A
C539        C929   1.398       .  A
C539        C540   1.403       .  A
C540        H939   1.085       .  S
C541        C542   1.387       .  A
C541        H552   1.084       .  S
C542        H553   1.084       .  S
C543        C930   1.398       .  A
C543        C544   1.422       .  A
C543        C548   1.402       .  A
C544        C545   1.416       .  A
C545        C546   1.399       .  A
C545        H554   1.077       .  S
C546        C547   1.401       .  A
C546        H555   1.083   1_554  S
C547        C548   1.400       .  A
C548        H944   1.085       .  S
C557        C558   1.403       .  A
C557        C562   1.403       .  A
C558        C559   1.396       .  A
C558        H571   1.083       .  S
C559        C560   1.414       .  A
C559        H572   1.077       .  S
C560        C566   1.430       .  A
C560        C561   1.422       .  A
C561        C563   1.399       .  A
C561        C562   1.405       .  A
C562        H573   1.084       .  S
C563        C564   1.389       .  A
C563        H574   1.084       .  S
C564        C565   1.400       .  A
C564        H575   1.084       .  S
C565        C566   1.422       .  A
C565        C570   1.404       .  A
C566        C567   1.416       .  A
C567        C568   1.398       .  A
C567        H576   1.077       .  S
C568        C569   1.400       .  A
C568        H577   1.083       .  S
C569        C570   1.402       .  A
C570        H578   1.084       .  S
C579        C580   1.398       .  A
C579        C584   1.402       .  A
C580        C581   1.394       .  A
C580        H593   1.083       .  S
C581        C582   1.415       .  A
C581        H594   1.076       .  S
C582        C588   1.427       .  A
C582        C583   1.422       .  A
C583        C585   1.399       .  A
C583        C584   1.403       .  A
C584        H595   1.085       .  S
C585        C586   1.389       .  A
C585        H596   1.084       .  S
C586        C587   1.399       .  A
C586        H597   1.084       .  S
C587        C588   1.423       .  A
C587        C592   1.404       .  A
C588        C589   1.413       .  A
C589        C590   1.393       .  A
C589        H598   1.077       .  S
C590        C591   1.401       .  A
C590        H599   1.083       .  S
C591        C592   1.401       .  A
C592        H600   1.084       .  S
C601        C602   1.399       .  A
C601        C606   1.402       .  A
C602        C603   1.392       .  A
C602        H615   1.083       .  S
C603        C604   1.413       .  A
C603        H616   1.077       .  S
C604        C610   1.426       .  A
C604        C605   1.422       .  A
C605        C607   1.400       .  A
C605        C606   1.407       .  A
C606        H617   1.084       .  S
C607        C608   1.392       .  A
C607        H618   1.084       .  S
C608        C609   1.401       .  A
C608        H619   1.084       .  S
C609        C610   1.420       .  A
C609        C614   1.405       .  A
C610        C611   1.413       .  A
C611        C612   1.393       .  A
C611        H620   1.077       .  S
C612        C613   1.401       .  A
C612        H621   1.083       .  S
C613        C614   1.406       .  A
C614        H622   1.084       .  S
C623        C624   1.400       .  A
C623        C628   1.401       .  A
C624        C625   1.392       .  A
C624        H637   1.083       .  S
C625        C626   1.414       .  A
C625        H638   1.077       .  S
C626        C632   1.425       .  A
C626        C627   1.421       .  A
C627        C629   1.399       .  A
C627        C628   1.400       .  A
C628        H639   1.084       .  S
C629        C630   1.388       .  A
C629        H640   1.084       .  S
C630        C631   1.399       .  A
C630        H641   1.084       .  S
C631        C632   1.422       .  A
C631        C636   1.402       .  A
C632        C633   1.415       .  A
C633        C634   1.393       .  A
C633        H642   1.076       .  S
C634        C635   1.398       .  A
C634        H643   1.083       .  S
C635        C636   1.401       .  A
C636        H644   1.084       .  S
C645        C646   1.401       .  A
C645        C650   1.398       .  A
C646        C647   1.394       .  A
C646        H659   1.083       .  S
C647        C648   1.414       .  A
C647        H660   1.077       .  S
C648        C654   1.428       .  A
C648        C649   1.423       .  A
C649        C651   1.398       .  A
C649        C650   1.401       .  A
C650        H661   1.085       .  S
C651        C652   1.387       .  A
C651        H662   1.084       .  S
C652        C653   1.399       .  A
C652        H663   1.084       .  S
C653        C654   1.422       .  A
C653        C658   1.402       .  A
C654        C655   1.415       .  A
C655        C656   1.396       .  A
C655        H664   1.077       .  S
C656        C657   1.400       .  A
C656        H665   1.083       .  S
C657        C658   1.400       .  A
C658        H666   1.084       .  S
C667        C668   1.399       .  A
C667        C672   1.402       .  A
C668        C669   1.391       .  A
C668        H681   1.084       .  S
C669        C670   1.413       .  A
C669        H682   1.076       .  S
C670        C676   1.428       .  A
C670        C671   1.423       .  A
C671        C673   1.400       .  A
C671        C672   1.407       .  A
C672        H683   1.084       .  S
C673        C674   1.392       .  A
C673        H684   1.084       .  S
C674        C675   1.401       .  A
C674        H685   1.084       .  S
C675        C676   1.422       .  A
C675        C680   1.407       .  A
C676        C677   1.415       .  A
C677        C678   1.393       .  A
C677        H686   1.076       .  S
C678        C679   1.398       .  A
C678        H687   1.083       .  S
C679        C680   1.403       .  A
C680        H688   1.084       .  S
C689        C690   1.402       .  A
C689        C694   1.407       .  A
C690        C691   1.393       .  A
C690        H703   1.083   1_554  S
C691        C692   1.413       .  A
C691        H704   1.078       .  S
C692        C698   1.429       .  A
C692        C693   1.421       .  A
C693       C1083   1.401       .  A
C693        C694   1.408       .  A
C694       H1093   1.084       .  S
C695        C696   1.393       .  A
C695        H706   1.084       .  S
C696        H707   1.084       .  S
C697       C1084   1.401       .  A
C697        C698   1.423       .  A
C697        C702   1.409       .  A
C698        C699   1.413       .  A
C699        C700   1.393       .  A
C699        H708   1.078       .  S
C700        C701   1.400       .  A
C700        H709   1.083   1_545  S
C701        C702   1.403       .  A
C702       H1098   1.084       .  S
C711       C1100   1.404       .  A
C711        C716   1.400       .  A
C711        C781   1.487       .  S
C712        C713   1.395       .  A
C712        H725   1.083       .  S
C713        H726   1.077       .  S
C714       C1101   1.413       .  A
C714        C720   1.429   1_565  A
C714        C715   1.423       .  A
C715        C717   1.398   1_565  A
C715        C716   1.403       .  A
C716        H727   1.084       .  S
C717        C718   1.387       .  A
C717        H728   1.084       .  S
C718        C719   1.399       .  A
C718        H729   1.084       .  S
C719        C720   1.421       .  A
C719        C724   1.401       .  A
C720       C1109   1.417       .  A
C721        C722   1.399       .  A
C721        H730   1.077       .  S
C722        H731   1.083       .  S
C723       C1110   1.400       .  A
C723        C724   1.400       .  A
C724        H732   1.085       .  S
C733       C1122   1.400       .  A
C733        C738   1.404       .  A
C734        H747   1.083       .  S
C735       C1122   1.395       .  A
C735        C736   1.415       .  A
C735       H1136   1.077       .  S
C736        C742   1.429       .  A
C736        C737   1.421       .  A
C737        C739   1.400       .  A
C737        C738   1.406       .  A
C738        H749   1.084       .  S
C739        C740   1.391       .  A
C739        H750   1.084       .  S
C740        C741   1.400       .  A
C740        H751   1.084       .  S
C741        C742   1.423       .  A
C741        C746   1.408       .  A
C742        C743   1.413       .  A
C743        C744   1.393       .  A
C743       H1140   1.077       .  S
C744        C745   1.400       .  A
C744       H1141   1.083       .  S
C745        C746   1.402       .  A
C746        H754   1.084       .  S
C755        C756   1.399       .  A
C755       C1148   1.402       .  A
C755        C779   1.480       .  S
C756        C757   1.391       .  A
C756        H769   1.083       .  S
C757        C758   1.413       .  A
C757        H770   1.077       .  S
C758        C764   1.427       .  A
C758       C1147   1.423       .  A
C759        C761   1.400       .  A
C759        C760   1.407       .  A
C760        H771   1.085       .  S
C761        C762   1.392       .  A
C761        H772   1.084       .  S
C762        C763   1.401       .  A
C762        H773   1.084       .  S
C763        C768   1.406       .  A
C764       C1151   1.421       .  A
C764        C765   1.414       .  A
C765        C766   1.392       .  A
C765        H774   1.077       .  S
C766        C767   1.399       .  A
C766        H775   1.083       .  S
C767       C1156   1.403       .  A
C768        H776   1.084       .  S
C777        C778   1.408       .  A
C777        C782   1.407       .  A
C777       C1121   1.487       .  S
C778        H783   1.083       .  S
C779        C780   1.401       .  A
C780        C781   1.401       .  A
C780        H784   1.083       .  S
C782        H785   1.083       .  S
C786        C787   1.406       .  A
C786       C1155   1.482       .  S
C787        C788   1.404       .  A
C787        H792   1.083       .  S
C788        C789   1.403       .  A
C788        C829   1.479       .  S
C789        H793   1.083       .  S
C790        C791   1.402       .  A
C790        C827   1.474       .  S
C791        H794   1.084       .  S
O795        C798   1.266       .  A
O795       Cd800   2.475       .  S
C796        C812   1.480       .  S
C796        O805   1.266       .  A
C796        O801   1.266       .  A
O797        C803   1.267       .  A
O797       Cd800   2.500       .  S
C798        C810   1.479       .  S
C798        O806   1.265       .  A
C799       C1133   1.479       .  S
C799        O804   1.266       .  A
C799        O802   1.263       .  A
Cd800       O807   2.442       .  S
Cd800       O806   2.451       .  S
Cd800       O804   2.498       .  S
Cd800       O802   2.442       .  S
C803       C1089   1.481   1_565  S
C803        O807   1.264       .  A
C808        C809   1.405       .  A
C808        C813   1.406       .  A
C808       C1067   1.483       .  S
C809        C810   1.405       .  A
C809        H814   1.084       .  S
C810        C811   1.405       .  A
C811        C812   1.404       .  A
C811        H815   1.083       .  S
C812        C813   1.404       .  A
C813        H816   1.084       .  S
C817        C818   1.406       .  A
C817        C822   1.401       .  A
C817       C1033   1.478       .  S
C818        C819   1.404   1_556  A
C818        H823   1.083       .  S
C819        C820   1.403       .  A
C819       C1055   1.481       .  S
C820        C821   1.402       .  A
C820        H824   1.083       .  S
C821        C822   1.401   1_554  A
C821       C1011   1.481       .  S
C822        H825   1.083       .  S
O826        C829   1.268       .  A
O826       Cd831   2.451       .  S
C827        O836   1.262       .  A
C827        O832   1.264       .  A
O828        C834   1.265       .  A
O828       Cd831   2.488       .  S
C829        O837   1.269       .  A
C830       C1045   1.476       .  S
C830        O835   1.264       .  A
C830        O833   1.263       .  A
Cd831       O838   2.437       .  S
Cd831       O837   2.449       .  S
Cd831       O836   2.453       .  S
Cd831       O832   2.469       .  S
Cd831       O835   2.469       .  S
Cd831       O833   2.466       .  S
C834        C989   1.475       .  S
C834        O838   1.262       .  A
C839        C840   1.405       .  A
C839        C844   1.402       .  A
C839        C967   1.480       .  S
C840        C841   1.404       .  A
C840        H845   1.084       .  S
C841        C842   1.404       .  A
C841        C891   1.476       .  S
C842        C843   1.403       .  A
C842        H846   1.083       .  S
C843        C844   1.401       .  A
C843        C889   1.475       .  S
C844        H847   1.084       .  S
C848        C849   1.406       .  A
C848        C853   1.407       .  A
C848        C945   1.491       .  S
C849        C850   1.406       .  A
C849        H854   1.082       .  S
C850        C851   1.402       .  A
C850       C1001   1.488       .  S
C851        C852   1.403       .  A
C851        H855   1.083       .  S
C852        C853   1.405       .  A
C852        C979   1.483       .  S
C853        H856   1.082       .  S
O857        C860   1.265       .  A
O857       Cd862   2.458       .  S
C858        C872   1.477       .  S
C858        O867   1.266       .  A
C858        O863   1.265       .  A
O859        C865   1.265       .  A
O859       Cd862   2.487       .  S
C860        C874   1.476       .  S
C860        O868   1.265       .  A
C861       C1023   1.473       .  S
C861        O866   1.266       .  A
C861        O864   1.264       .  A
Cd862       O869   2.461       .  S
Cd862       O868   2.450       .  S
Cd862       O867   2.460       .  S
Cd862       O863   2.454       .  S
Cd862       O866   2.462       .  S
Cd862       O864   2.442       .  S
C865        C957   1.480       .  S
C865        O869   1.264       .  A
C870        C875   1.405       .  A
C870        C923   1.485       .  S
C871        C872   1.405       .  A
C871        H876   1.083       .  S
C873        C874   1.403       .  A
C873        H877   1.083       .  S
C874        C875   1.404       .  A
C875        H878   1.084       .  S
C879        C880   1.407       .  A
C879        C884   1.406       .  A
C879        C913   1.490       .  S
C880        C881   1.406   1_556  A
C880        H885   1.082       .  S
C881        C882   1.404       .  A
C881       C1077   1.493       .  S
C882        C883   1.406       .  A
C882        H886   1.083       .  S
C883        C884   1.405   1_554  A
C883        C935   1.484       .  S
C884        H887   1.083       .  S
O888        C891   1.266       .  A
C889        O898   1.265       .  A
C889        O894   1.265       .  A
O890        C896   1.266       .  A
O890       Cd893   2.482       .  S
C891        O899   1.266       .  A
C892        C901   1.477       .  S
C892        O897   1.266       .  A
C892        O895   1.263       .  A
Cd893       O900   2.442       .  S
Cd893       O898   2.460       .  S
Cd893       O894   2.446       .  S
Cd893       O897   2.467       .  S
Cd893       O895   2.459       .  S
C896       C1111   1.477       .  S
C896        O900   1.264       .  A
C901        C902   1.398       .  A
C901        C906   1.403       .  A
C902        C903   1.394       .  A
C902        H915   1.083       .  S
C903        C904   1.415       .  A
C903        H916   1.076       .  S
C904        C910   1.429       .  A
C904        C905   1.422       .  A
C905        C907   1.400   1_655  A
C905        C906   1.406       .  A
C906        H917   1.084   1_655  S
C907        C908   1.391       .  A
C908        C909   1.400   1_455  A
C908        H919   1.084       .  S
C909        C910   1.422       .  A
C909        C914   1.408   1_655  A
C910        C911   1.413       .  A
C911        C912   1.393       .  A
C911        H920   1.076       .  S
C912        C913   1.401       .  A
C912        H921   1.083       .  S
C913        C914   1.405   1_655  A
C914        H922   1.084       .  S
C923        C924   1.402       .  A
C923        C928   1.400   1_655  A
C924        C925   1.398       .  A
C924        H937   1.083       .  S
C925        C926   1.415       .  A
C925        H938   1.077       .  S
C926        C932   1.431       .  A
C926        C927   1.423   1_655  A
C927        C928   1.403       .  A
C929        C930   1.387       .  A
C929        H940   1.084       .  S
C930        H941   1.084       .  S
C931        C932   1.422   1_455  A
C931        C936   1.402       .  A
C932        C933   1.416       .  A
C933        C934   1.399       .  A
C933        H942   1.077       .  S
C934        C935   1.401       .  A
C934        H943   1.083   1_554  S
C935        C936   1.400   1_655  A
C945        C946   1.403       .  A
C945        C950   1.403       .  A
C946        C947   1.396       .  A
C946        H959   1.083       .  S
C947        C948   1.414       .  A
C947        H960   1.077       .  S
C948        C954   1.430       .  A
C948        C949   1.422       .  A
C949        C951   1.399       .  A
C949        C950   1.405       .  A
C950        H961   1.084       .  S
C951        C952   1.389       .  A
C951        H962   1.084       .  S
C952        C953   1.400       .  A
C952        H963   1.084       .  S
C953        C954   1.422       .  A
C953        C958   1.404       .  A
C954        C955   1.416       .  A
C955        C956   1.398       .  A
C955        H964   1.077       .  S
C956        C957   1.400       .  A
C956        H965   1.083       .  S
C957        C958   1.402       .  A
C958        H966   1.084       .  S
C967        C968   1.398       .  A
C967        C972   1.402       .  A
C968        C969   1.394       .  A
C968        H981   1.083       .  S
C969        C970   1.415       .  A
C969        H982   1.076       .  S
C970        C976   1.427       .  A
C970        C971   1.422       .  A
C971        C973   1.399       .  A
C971        C972   1.403       .  A
C972        H983   1.085       .  S
C973        C974   1.389       .  A
C973        H984   1.084       .  S
C974        C975   1.399       .  A
C974        H985   1.084       .  S
C975        C976   1.423       .  A
C975        C980   1.404       .  A
C976        C977   1.413       .  A
C977        C978   1.393       .  A
C977        H986   1.077       .  S
C978        C979   1.401       .  A
C978        H987   1.083       .  S
C979        C980   1.401       .  A
C980        H988   1.084       .  S
C989        C990   1.399       .  A
C989        C994   1.402       .  A
C990        C991   1.392       .  A
C990       H1003   1.083       .  S
C991        C992   1.413       .  A
C991       H1004   1.077       .  S
C992        C998   1.426       .  A
C992        C993   1.422       .  A
C993        C995   1.400       .  A
C993        C994   1.407       .  A
C994       H1005   1.084       .  S
C995        C996   1.392       .  A
C995       H1006   1.084       .  S
C996        C997   1.401       .  A
C996       H1007   1.084       .  S
C997        C998   1.420       .  A
C997       C1002   1.405       .  A
C998        C999   1.413       .  A
C999       C1000   1.393       .  A
C999       H1008   1.077       .  S
C1000      C1001   1.401       .  A
C1000      H1009   1.083       .  S
C1001      C1002   1.406       .  A
C1002      H1010   1.084       .  S
C1011      C1012   1.400       .  A
C1011      C1016   1.401       .  A
C1012      C1013   1.392       .  A
C1012      H1025   1.083       .  S
C1013      C1014   1.414       .  A
C1013      H1026   1.077       .  S
C1014      C1020   1.425       .  A
C1014      C1015   1.421       .  A
C1015      C1017   1.399       .  A
C1015      C1016   1.400       .  A
C1016      H1027   1.084       .  S
C1017      C1018   1.388       .  A
C1017      H1028   1.084       .  S
C1018      C1019   1.399       .  A
C1018      H1029   1.084       .  S
C1019      C1020   1.422       .  A
C1019      C1024   1.402       .  A
C1020      C1021   1.415       .  A
C1021      C1022   1.393       .  A
C1021      H1030   1.076       .  S
C1022      C1023   1.398       .  A
C1022      H1031   1.083       .  S
C1023      C1024   1.401       .  A
C1024      H1032   1.084       .  S
C1033      C1034   1.401       .  A
C1033      C1038   1.398       .  A
C1034      C1035   1.394       .  A
C1034      H1047   1.083       .  S
C1035      C1036   1.414       .  A
C1035      H1048   1.077       .  S
C1036      C1042   1.428       .  A
C1036      C1037   1.423       .  A
C1037      C1039   1.398       .  A
C1037      C1038   1.401       .  A
C1038      H1049   1.085       .  S
C1039      C1040   1.388       .  A
C1039      H1050   1.084       .  S
C1040      C1041   1.399       .  A
C1040      H1051   1.084       .  S
C1041      C1042   1.422       .  A
C1041      C1046   1.402       .  A
C1042      C1043   1.415       .  A
C1043      C1044   1.396       .  A
C1043      H1052   1.077       .  S
C1044      C1045   1.400       .  A
C1044      H1053   1.083       .  S
C1045      C1046   1.400       .  A
C1046      H1054   1.084       .  S
C1055      C1056   1.399       .  A
C1055      C1060   1.402       .  A
C1056      C1057   1.391       .  A
C1056      H1069   1.084       .  S
C1057      C1058   1.413       .  A
C1057      H1070   1.076       .  S
C1058      C1064   1.428       .  A
C1058      C1059   1.423       .  A
C1059      C1061   1.400       .  A
C1059      C1060   1.407       .  A
C1060      H1071   1.084       .  S
C1061      C1062   1.392       .  A
C1061      H1072   1.084       .  S
C1062      C1063   1.401       .  A
C1062      H1073   1.084       .  S
C1063      C1064   1.422       .  A
C1063      C1068   1.407       .  A
C1064      C1065   1.415       .  A
C1065      C1066   1.393       .  A
C1065      H1074   1.076       .  S
C1066      C1067   1.398       .  A
C1066      H1075   1.083       .  S
C1067      C1068   1.403       .  A
C1068      H1076   1.084       .  S
C1077      C1078   1.402       .  A
C1077      C1082   1.407   1_655  A
C1078      C1079   1.393       .  A
C1078      H1091   1.083   1_554  S
C1079      C1080   1.413       .  A
C1079      H1092   1.078       .  S
C1080      C1086   1.429       .  A
C1080      C1081   1.421       .  A
C1081      C1082   1.408   1_655  A
C1083      C1084   1.393       .  A
C1083      H1094   1.084       .  S
C1084      H1095   1.084       .  S
C1085      C1086   1.423       .  A
C1085      C1090   1.409       .  A
C1086      C1087   1.413       .  A
C1087      C1088   1.393       .  A
C1087      H1096   1.078       .  S
C1088      C1089   1.400       .  A
C1088      H1097   1.083   1_545  S
C1089      C1090   1.403       .  A
C1099      C1104   1.400       .  A
C1100      C1101   1.395       .  A
C1100      H1113   1.083       .  S
C1101      H1114   1.077       .  S
C1102      C1108   1.429   1_565  A
C1102      C1103   1.423       .  A
C1103      C1105   1.398   1_565  A
C1103      C1104   1.403       .  A
C1104      H1115   1.084       .  S
C1105      C1106   1.387       .  A
C1105      H1116   1.084       .  S
C1106      C1107   1.399       .  A
C1106      H1117   1.084       .  S
C1107      C1108   1.421       .  A
C1107      C1112   1.401       .  A
C1109      C1110   1.399       .  A
C1109      H1118   1.077       .  S
C1110      H1119   1.083       .  S
C1111      C1112   1.400       .  A
C1112      H1120   1.085       .  S
C1121      C1126   1.404       .  A
C1122      H1135   1.083       .  S
C1123      C1124   1.415       .  A
C1124      C1130   1.429       .  A
C1124      C1125   1.421       .  A
C1125      C1127   1.400       .  A
C1125      C1126   1.406       .  A
C1126      H1137   1.084       .  S
C1127      C1128   1.391       .  A
C1127      H1138   1.084       .  S
C1128      C1129   1.400       .  A
C1128      H1139   1.084       .  S
C1129      C1130   1.423       .  A
C1129      C1134   1.408       .  A
C1130      C1131   1.413   1_655  A
C1131      C1132   1.393       .  A
C1132      C1133   1.400   1_455  A
C1133      C1134   1.402       .  A
C1134      H1142   1.084       .  S
C1143      C1144   1.399       .  A
C1144      C1145   1.391       .  A
C1144      H1157   1.083       .  S
C1145      C1146   1.413       .  A
C1145      H1158   1.077       .  S
C1146      C1152   1.427       .  A
C1147      C1149   1.400       .  A
C1147      C1148   1.407       .  A
C1148      H1159   1.085       .  S
C1149      C1150   1.392       .  A
C1149      H1160   1.084       .  S
C1150      C1151   1.401       .  A
C1150      H1161   1.084       .  S
C1151      C1156   1.406       .  A
C1152      C1153   1.414       .  A
C1153      C1154   1.392       .  A
C1153      H1162   1.077       .  S
C1154      C1155   1.399       .  A
C1154      H1163   1.083       .  S
C1156      H1164   1.084       .  S
