geometry optimzed in LAMMPS
_audit_creation_date              2020-12-01 
_audit_creation_method            'lammps2cif' 
_symmetry_space_group_name_H-M    'P1' 
_symmetry_Int_Tables_number       1 
_symmetry_cell_setting            triclinic 
loop_ 
_symmetry_equiv_pos_as_xyz 
  x,y,z 
_cell_length_a                    32.40655651 
_cell_length_b                    31.82676064302897 
_cell_length_c                    49.86518597232874 
_cell_angle_alpha                 92.45475067756752 
_cell_angle_beta                  89.1841484232025 
_cell_angle_gamma                 119.21789896247842 
loop_ 
_atom_site_label 
_atom_site_type_symbol 
_atom_site_fract_x 
_atom_site_fract_y 
_atom_site_fract_z 
_atom_site_charge 
N1          N  0.02132969  0.08689470  0.08778397    -0.02600
C2          C  0.04743848  0.10545451  0.11083286     0.00000
C3          C  0.06082215  0.07289815  0.11952697    -0.22900
C4          C  0.04742945  0.03687539  0.10014551    -0.23100
C5          C  0.02381947  0.04668782  0.08088844    -0.00100
H6          H  0.08550824  0.07926214  0.13563626     0.13700
H7          H  0.05856176  0.00991432  0.09881284     0.13700
N8          N  0.28458767  0.18622447  0.06998957    -0.02600
C9          C  0.32452123  0.21940885  0.05766233     0.00000
C10         C  0.36034533  0.24513717  0.07663694    -0.22900
C11         C  0.33916424  0.23684093  0.10093182    -0.23100
C12         C  0.29237852  0.20430415  0.09582494    -0.00100
H13         H  0.39524724  0.27501044  0.07311065     0.13700
H14         H  0.35473038  0.25690461  0.11955161     0.13700
N15         N  0.19356738  0.00969187  0.05508536    -0.02600
C16         C  0.18993491  0.00636929  0.02780214     0.00000
C17         C  0.18821501  0.29748454  0.01797784    -0.22900
C18         C  0.18383368  0.27079195  0.03958299    -0.23100
C19         C  0.18480073  0.29829364  0.06185531    -0.00100
H20         H  0.18016459  0.28288389  0.99753203     0.13700
H21         H  0.17553189  0.23342898  0.03898519     0.13700
C22         C  0.23264584  0.05298107  0.06729847     0.81100
N23         N  0.23702611  0.09759819  0.06386641    -0.77200
C24         C  0.27957414  0.13837308  0.06882232     0.83600
N25         N  0.31759808  0.13412931  0.07652374    -0.77100
C26         C  0.31371230  0.09084375  0.08053716     0.83700
N27         N  0.27101814  0.05052512  0.07623999    -0.78800
N28         N  0.21010688  0.28925131  0.91755926    -0.02600
C29         C  0.22515909  0.29805030  0.94372332     0.00000
C30         C  0.23528288  0.01112003  0.95158998    -0.22900
C31         C  0.23160398  0.03281020  0.92938288    -0.23100
C32         C  0.21723308  0.99859784  0.90880529    -0.00100
H33         H  0.25196500  0.03013572  0.97028358     0.13700
H34         H  0.24022519  0.06993905  0.92822537     0.13700
N35         N  0.13338951  0.11544519  0.90728428    -0.02600
C36         C  0.17543575  0.12216076  0.89746727     0.00000
C37         C  0.20814867  0.13539923  0.91807879    -0.22900
C38         C  0.18243871  0.12598864  0.94126026    -0.23100
C39         C  0.13512597  0.10464859  0.93324344    -0.00100
H40         H  0.24385347  0.14114132  0.91649956     0.13700
H41         H  0.19513886  0.12113124  0.96022835     0.13700
C42         C  0.13028378  0.15889730  0.90482236     0.81100
N43         N  0.16823720  0.20171797  0.91323498    -0.77200
C44         C  0.17170500  0.24402883  0.90711029     0.83600
N45         N  0.13497946  0.24330266  0.89404113    -0.77100
C46         C  0.09430839  0.20167471  0.88833439     0.83700
N47         N  0.09229248  0.15864146  0.89292637    -0.78800
N48         N  0.05307509  0.20512430  0.88096427    -0.02600
C49         C  0.03360835  0.19507242  0.85576985     0.00000
C50         C  0.01615924  0.22587103  0.85054360    -0.22900
C51         C  0.02334259  0.25455371  0.87289086    -0.23100
C52         C  0.04563060  0.24121649  0.89126403    -0.00100
H53         H  0.32696670  0.22275263  0.83388173     0.13700
H54         H  0.01130159  0.28070188  0.87592121     0.13700
O55         O  0.25392448  0.26458047  0.97606260    -0.80000
O56         O  0.11967831  0.00964705  0.02631578    -0.64700
O57         O  0.01090994  0.99899563  0.99298133    -1.11300
C58         C  0.05521956  0.26265986  0.91887713     1.06900
O59         O  0.16172404  0.02580651  0.98930366    -0.77900
O60         O  0.12873334  0.03022031  0.94138830    -0.65500
Ni61       Ni  0.28406978  0.96494944  0.00991554     1.34900
C62         C  0.10669532  0.05413976  0.94164223     0.85600
O63         O  0.05686214  0.03800663  0.04043623    -0.78400
O64         O  0.31031686  0.99916952  0.04398165    -0.88700
C65         C  0.15718248  0.01779210  0.01416663     0.85200
O66         O  0.28874167  0.24400548  0.02320943    -0.66900
O67         O  0.08948419  0.26619864  0.93283956    -0.82600
C68         C  0.32566469  0.24756005  0.03427707     0.86000
C69         C  0.01869333  0.02728786  0.05326010     1.07600
H70         H  0.05229880  0.26654385  0.98409858     0.39400
O71         O  0.06641972  0.29978577  0.97925737    -1.08800
O72         O  0.06375540  0.03686895  0.94930160    -0.65500
Ni73       Ni  0.01929904  0.30506033  0.96010230     1.26300
O74         O  0.03326892  0.28096715  0.02919970    -0.65700
O75         O  0.02828204  0.27894521  0.92703573    -0.78000
C76         C  0.26064265  0.28636541  0.95402574     0.85400
O77         O  0.30180055  0.30822479  0.94391917    -0.65200
Ni78       Ni  0.12356061  0.31221372  0.96177826     1.27400
Ni79       Ni  0.06463851  0.00435386  0.00998946     1.26100
H80         H  0.01626158  0.03111543  0.99011801     0.40000
N81         N  0.21275145  0.21205572  0.73173284    -0.02600
C82         C  0.17776256  0.19971901  0.71307066     0.00000
C83         C  0.15177225  0.15012381  0.70945812    -0.22900
C84         C  0.16923788  0.13108044  0.72665327    -0.23100
C85         C  0.20635447  0.16895551  0.74028006    -0.00100
H86         H  0.11922205  0.12930671  0.69820244     0.13700
H87         H  0.15246958  0.09334454  0.73115005     0.13700
N88         N  0.04341636  0.30090550  0.75319755    -0.02600
C89         C  0.05142122  0.96475960  0.77967081     0.00000
C90         C  0.04516089  0.25289568  0.78480055    -0.22900
C91         C  0.03975128  0.22925614  0.76072899    -0.23100
C92         C  0.04212310  0.26050268  0.74187400    -0.00100
H93         H  0.05631247  0.90976221  0.80267330     0.13700
H94         H  0.04326551  0.19733590  0.75719070     0.13700
N95         N  0.29336057  0.05160558  0.72147321    -0.02600
C96         C  0.25587861  0.05416520  0.73247968     0.00000
C97         C  0.22949102  0.05980094  0.71303992    -0.22900
C98         C  0.92000910  0.06565192  0.68958621    -0.23100
C99         C  0.95961327  0.06184643  0.69501182    -0.00100
H100        H  0.20025244  0.06639428  0.71618567     0.13700
H101        H  0.91360575  0.07987063  0.67170700     0.13700
C102        C  0.00142279  0.97073781  0.74717955     0.81100
N103        N  0.00330032  0.01129686  0.73740073    -0.77200
C104        C  0.96254658  0.00899959  0.72808713     0.83600
N105        N  0.25495465  0.96580228  0.72733753    -0.77100
C106        C  0.25267811  0.25928197  0.73750750     0.83700
N107        N  0.95897100  0.26293973  0.74825606    -0.78800
O108        O  0.00418416  0.13935494  0.81853040    -0.80000
O109        O  0.12782650  0.03316028  0.78370983    -0.64700
O110        O  0.24574584  0.11996091  0.81718395    -1.11300
C111        C  0.20676766  0.00746022  0.88184889     1.06900
O112        O  0.08743879  0.00216002  0.82075047    -0.77900
O113        O  0.14172045  0.06668143  0.86046201    -0.65500
Ni114      Ni  0.30045708  0.15487730  0.79514928     1.34900
C115        C  0.17900400  0.09586785  0.87334876     0.85600
O116        O  0.18940316  0.12650843  0.77893309    -0.78400
O117        O  0.26652298  0.17230807  0.76956324    -0.88700
C118        C  0.09026019  0.00404740  0.79539994     0.85200
O119        O  0.29206475  0.10256727  0.77135305    -0.66900
O120        O  0.16574076  0.00169727  0.87767309    -0.86200
C121        C  0.25391498  0.07032451  0.76050913     0.86000
C122        C  0.22270884  0.15792834  0.76518742     1.07600
H123        H  0.18690210  0.00492045  0.81383009     0.39400
O124        O  0.18512625  0.03067694  0.82382676    -1.08800
O125        O  0.21888306  0.09850923  0.86852399    -0.65500
Ni126      Ni  0.24449001  0.07316107  0.84108683     1.26300
O127        O  0.21330182  0.05720802  0.77071861    -0.65700
O128        O  0.24000038  0.02596970  0.86498157    -0.78000
C129        C  0.00521998  0.14640851  0.84382217     0.85400
O130        O  0.30409676  0.11717996  0.85748344    -0.65200
Ni131      Ni  0.13102395  0.00482814  0.84748580     1.27400
Ni132      Ni  0.18695171  0.07777928  0.80034756     1.26100
H133        H  0.24175037  0.14410439  0.82750154     0.40000
N134        N  0.16250222  0.10925422  0.56549456    -0.02600
C135        C  0.17124407  0.15316389  0.57605556     0.00000
C136        C  0.18400294  0.18557702  0.55578826    -0.22900
C137        C  0.17052715  0.15794189  0.53235262    -0.23100
C138        C  0.14875597  0.11012515  0.53982006    -0.00100
H139        H  0.19098459  0.22249231  0.55780754     0.13700
H140        H  0.16440291  0.17051415  0.51375583     0.13700
N141        N  0.33489068  0.17952099  0.55962366    -0.02600
C142        C  0.04032577  0.17925972  0.56941057     0.00000
C143        C  0.07431424  0.19033465  0.55024975    -0.22900
C144        C  0.05664920  0.19761043  0.52744420    -0.23100
C145        C  0.01305794  0.19311007  0.53377249    -0.00100
H146        H  0.10921383  0.19534868  0.55303649     0.13700
H147        H  0.07690882  0.21261931  0.50949412     0.13700
N148        N  0.24767398  0.02197908  0.58955308    -0.02600
C149        C  0.28448477  0.01496391  0.58153252     0.00000
C150        C  0.29629458  0.32604633  0.60077035    -0.22900
C151        C  0.26697554  0.31969949  0.62175454    -0.23100
C152        C  0.23773797  0.00420601  0.61445543    -0.00100
H153        H  0.32277291  0.31465675  0.59938089     0.13700
H154        H  0.26439354  0.30024721  0.63956560     0.13700
C155        C  0.20464934  0.10389058  0.56724677     0.81100
N156        N  0.20288471  0.06340237  0.57725722    -0.77200
C157        C  0.24451183  0.06369063  0.58235310     0.83600
N158        N  0.28559395  0.10463197  0.57981010    -0.77100
C159        C  0.28858970  0.14300796  0.56783583     0.83700
N160        N  0.24788890  0.14203544  0.56067190    -0.78800
O161        O  0.00521210  0.09090962  0.65482166    -0.80000
O162        O  0.15662805  0.28695703  0.61600473    -0.64700
O163        O  0.09787110  0.17053104  0.65265031    -1.11300
C164        C  0.06201223  0.25821724  0.71582516     1.06900
O165        O  0.19449515  0.32592341  0.65335581    -0.77900
O166        O  0.17808782  0.26894368  0.69408787    -0.65500
Ni167      Ni  0.06271838  0.10962429  0.63389790     1.34900
C168        C  0.15576561  0.22800446  0.70421709     0.85600
O169        O  0.15170912  0.20108138  0.60571263    -0.78400
O170        O  0.11752957  0.12164651  0.61248295    -0.88700
C171        C  0.19286179  0.31956009  0.62798932     0.85200
O172        O  0.04107060  0.13094568  0.60408248    -0.66900
O173        O  0.10522171  0.28955142  0.71165718    -0.86200
C174        C  0.04923924  0.17248134  0.59725850     0.86000
C175        C  0.14629456  0.15905429  0.60002978     1.07600
H176        H  0.08103759  0.26243634  0.65237162     0.39400
O177        O  0.10212168  0.25269416  0.66005548    -1.08800
O178        O  0.11128034  0.20622961  0.70504469    -0.65500
Ni179      Ni  0.06665154  0.19360552  0.67715682     1.26300
O180        O  0.07254455  0.21046061  0.61166724    -0.65700
O181        O  0.03841964  0.22058416  0.70077486    -0.78000
C182        C  0.00254221  0.09521778  0.68040292     0.85400
O183        O  0.03192633  0.13292616  0.69328925    -0.65200
Ni184      Ni  0.14859136  0.30504158  0.68165962     1.27400
Ni185      Ni  0.12698964  0.22742539  0.63311338     1.26100
H186        H  0.12334501  0.16906919  0.66153975     0.40000
N187        N  0.22059455  0.22888867  0.40890372    -0.02600
C188        C  0.21400684  0.18520194  0.39938897     0.00000
C189        C  0.20026932  0.15358394  0.42014178    -0.22900
C190        C  0.21156037  0.18210621  0.44322148    -0.23100
C191        C  0.23248382  0.22948644  0.43511506    -0.00100
H192        H  0.19461401  0.11708533  0.41902801     0.13700
H193        H  0.21715976  0.17080792  0.46238910     0.13700
N194        N  0.04800261  0.15886539  0.41290295    -0.02600
C195        C  0.01174460  0.16198345  0.40142348     0.00000
C196        C  0.31134344  0.15645675  0.41985833    -0.22900
C197        C  0.32526107  0.14817555  0.44359478    -0.23100
C198        C  0.03348967  0.14741207  0.43882271    -0.00100
H199        H  0.27907931  0.15641318  0.41631644     0.13700
H200        H  0.30363874  0.13665819  0.46140860     0.13700
N201        N  0.13969881  0.32341730  0.39300018    -0.02600
C202        C  0.10541857  0.33480008  0.40026168     0.00000
C203        C  0.10561702  0.36869559  0.38369465    -0.22900
C204        C  0.14008873  0.04473397  0.36533435    -0.23100
C205        C  0.15991047  0.34995087  0.37145670    -0.00100
H206        H  0.08332520  0.05194474  0.38498687     0.13700
H207        H  0.15001727  0.06967366  0.34926939     0.13700
C208        C  0.17833679  0.23357763  0.40576486     0.81100
N209        N  0.13458278  0.19426493  0.40996730    -0.77200
C210        C  0.09469350  0.19763219  0.40746337     0.83600
N211        N  0.09877229  0.24038803  0.40181715    -0.77100
C212        C  0.14067306  0.28024790  0.39939391     0.83700
N213        N  0.18132539  0.27709424  0.40068436    -0.78800
O214        O  0.98857542  0.22003619  0.49726290    -0.80000
O215        O  0.01896744  0.06810829  0.44504424    -0.64700
O216        O  0.04284713  0.31402588  0.48221877    -1.11300
C217        C  0.30776235  0.02430316  0.55513172     1.06900
O218        O  0.05288752  0.12256899  0.47828370    -0.77900
O219        O  0.07696537  0.10375098  0.52535322    -0.65500
Ni220      Ni  0.02851906  0.25288619  0.46742482     1.34900
C221        C  0.09799551  0.08027450  0.53075759     0.85600
O222        O  0.05686546  0.34655800  0.43070813    -0.78400
O223        O  0.06864305  0.28367514  0.43726589    -0.88700
C224        C  0.03812427  0.11152158  0.45410591     0.85200
O225        O  0.30606697  0.23912866  0.44812829    -0.66900
O226        O  0.31688892  0.06213269  0.54259530    -0.86200
C227        C  0.28229649  0.26058116  0.44485272     0.86000
C228        C  0.07497737  0.31998749  0.42414307     1.07600
H229        H  0.30068126  0.34561287  0.49297662     0.39400
O230        O  0.00125058  0.02816238  0.49537393    -1.08800
O231        O  0.07763974  0.03431217  0.52823224    -0.65500
Ni232      Ni  0.01451769  0.31930307  0.51484217     1.26300
O233        O  0.29916711  0.30556777  0.45020608    -0.65700
O234        O  0.31928731  0.32654907  0.54670317    -0.78000
C235        C  0.00431565  0.22865648  0.52119418     0.85400
O236        O  0.02299350  0.27126205  0.53154018    -0.65200
Ni237      Ni  0.01808137  0.09021245  0.51001684     1.27400
Ni238      Ni  0.02872827  0.02164406  0.46256257     1.26100
H239        H  0.07672441  0.33082778  0.48482607     0.40000
N240        N  0.31284361  0.34556506  0.22359887    -0.02600
C241        C  0.31108936  0.38706716  0.22872948     0.00000
C242        C  0.30174730  0.40285428  0.20550025    -0.22900
C243        C  0.29346972  0.36788907  0.18599127    -0.23100
C244        C  0.29721837  0.33127032  0.19801558    -0.00100
H245        H  0.29325577  0.43162422  0.20396499     0.13700
H246        H  0.27689138  0.36497068  0.16678209     0.13700
N247        N  0.14529602  0.09340678  0.24751157    -0.02600
C248        C  0.15035409  0.13761225  0.24359924     0.00000
C249        C  0.15672964  0.16278218  0.26769819    -0.22900
C250        C  0.15974911  0.13458147  0.28675872    -0.23100
C251        C  0.15702572  0.09407202  0.27340887    -0.00100
H252        H  0.16593106  0.20026272  0.27059348     0.13700
H253        H  0.17220060  0.14705429  0.30708500     0.13700
N254        N  0.05963396  0.25368941  0.23962008    -0.02600
C255        C  0.05948609  0.23463192  0.26362029     0.00000
C256        C  0.06823458  0.19666452  0.25874620    -0.22900
C257        C  0.06915498  0.18993463  0.23144417    -0.23100
C258        C  0.06631984  0.22699285  0.21984099    -0.00100
H259        H  0.06665640  0.17161618  0.27328936     0.13700
H260        H  0.07327888  0.16167786  0.22113814     0.13700
C261        C  0.02083847  0.34321362  0.23164245     0.81100
N262        N  0.06306719  0.05130485  0.23409037    -0.77200
C263        C  0.10414820  0.05040112  0.23768370     0.83600
N264        N  0.10248711  0.34042203  0.23924188    -0.77100
C265        C  0.06074610  0.29872489  0.23650174     0.83700
N266        N  0.01995572  0.30009229  0.23243670    -0.78800
O267        O  0.26868963  0.20581387  0.14032368    -0.80000
O268        O  0.13686693  0.26241112  0.19758688    -0.64700
O269        O  0.17974302  0.18705823  0.15904720    -1.11300
C270        C  0.17097133  0.27685577  0.08842589     1.06900
O271        O  0.07406045  0.23456939  0.17152474    -0.77900
O272        O  0.06959854  0.18772437  0.12348494    -0.65500
Ni273      Ni  0.23203427  0.18202079  0.17231180     1.34900
C274        C  0.08263238  0.15733717  0.11598723     0.85600
O275        O  0.15602969  0.19378041  0.21247108    -0.78400
O276        O  0.19690279  0.15454649  0.20443446    -0.88700
C277        C  0.09316565  0.24590073  0.19502748     0.85200
O278        O  0.26928769  0.24632969  0.18889891    -0.66900
O279        O  0.13620395  0.27712279  0.10130910    -0.86200
C280        C  0.26040944  0.28113084  0.19117151     0.86000
C281        C  0.16824094  0.16292840  0.21843094     1.07600
H282        H  0.18570474  0.28680827  0.14847984     0.39400
O283        O  0.16134000  0.25339872  0.14725703    -1.08800
O284        O  0.12600175  0.16791469  0.11476836    -0.65500
Ni285      Ni  0.18629354  0.21980441  0.12686501     1.26300
O286        O  0.21965800  0.27568334  0.18756612    -0.65700
O287        O  0.19253635  0.25490314  0.09589687    -0.78000
C288        C  0.25593266  0.19643707  0.11574101     0.85400
O289        O  0.21510971  0.18729977  0.10813988    -0.65200
Ni290      Ni  0.10582590  0.25439168  0.13627413     1.27400
Ni291      Ni  0.15870150  0.22413676  0.17965356     1.26100
H292        H  0.15359567  0.15461301  0.15715532     0.40000
O293        O  0.18964150  0.33634019  0.33199390    -0.80000
O294        O  0.31574173  0.19423372  0.27587625    -0.64700
O295        O  0.27443983  0.08066742  0.31387736    -1.11300
C296        C  0.24022061  0.17899734  0.37603318     1.06900
O297        O  0.03184462  0.23468142  0.30922354    -0.77900
O298        O  0.01198746  0.20961592  0.36552128    -0.65500
Ni299      Ni  0.22691659  0.35256249  0.29974002     1.34900
C300        C  0.33951718  0.16919902  0.37284380     0.85600
O301        O  0.31322121  0.10840432  0.26332916    -0.78400
O302        O  0.26072009  0.36279013  0.26617004    -0.88700
C303        C  0.02306456  0.22534427  0.28383514     0.85200
O304        O  0.18535109  0.04229342  0.28807054    -0.66900
O305        O  0.26654205  0.21546371  0.36185830    -0.86200
C306        C  0.19456310  0.08281590  0.27939115     0.86000
C307        C  0.29498981  0.06461219  0.25466661     1.07600
H308        H  0.24585194  0.16080818  0.31734498     0.39400
O309        O  0.27439375  0.16060179  0.32222453    -1.08800
O310        O  0.31882550  0.13187309  0.35786968    -0.65500
Ni311      Ni  0.25686003  0.10806775  0.34353984     1.26300
O312        O  0.23605005  0.11651169  0.27581367    -0.65700
O313        O  0.23756426  0.13741910  0.37235149    -0.78000
C314        C  0.19891700  0.01932312  0.35612361     0.85400
O315        O  0.23908011  0.05274382  0.36302253    -0.65200
Ni316      Ni  0.31572937  0.22399440  0.33609233     1.27400
Ni317      Ni  0.29457112  0.13574380  0.29300833     1.26100
H318        H  0.30176286  0.07765565  0.31838065     0.40000
N319        N  0.02132694  0.42022524  0.08778711    -0.02600
C320        C  0.04743819  0.43878596  0.11083515     0.00000
C321        C  0.06082300  0.40623001  0.11952854    -0.22900
C322        C  0.04742811  0.37020643  0.10014740    -0.23100
C323        C  0.02381641  0.38001826  0.08089104    -0.00100
H324        H  0.08551082  0.41259450  0.13563693     0.13700
H325        H  0.05856074  0.34324562  0.09881414     0.13700
N326        N  0.28458486  0.51955417  0.06998993    -0.02600
C327        C  0.32451841  0.55273883  0.05766266     0.00000
C328        C  0.36034321  0.57846508  0.07663726    -0.22900
C329        C  0.33916266  0.57016825  0.10093234    -0.23100
C330        C  0.29237644  0.53763333  0.09582547    -0.00100
H331        H  0.39524543  0.60833793  0.07311114     0.13700
H332        H  0.35472955  0.59023106  0.11955223     0.13700
N333        N  0.19356703  0.34302124  0.05508260    -0.02600
C334        C  0.18993020  0.33969673  0.02779958     0.00000
C335        C  0.18821852  0.63082233  0.01797974    -0.22900
C336        C  0.18383606  0.60412924  0.03958482    -0.23100
C337        C  0.18479928  0.63162915  0.06185716    -0.00100
H338        H  0.18017063  0.61622247  0.99753371     0.13700
H339        H  0.17553627  0.56676688  0.03898678     0.13700
C340        C  0.23264530  0.38631075  0.06729545     0.81100
N341        N  0.23702534  0.43092788  0.06386369    -0.77200
C342        C  0.27957200  0.47170291  0.06882263     0.83600
N343        N  0.31759502  0.46745913  0.07652604    -0.77100
C344        C  0.31370966  0.42417332  0.08053804     0.83700
N345        N  0.27101659  0.38385462  0.07623844    -0.78800
N346        N  0.21010502  0.62258428  0.91755818    -0.02600
C347        C  0.22515666  0.63138443  0.94372245     0.00000
C348        C  0.23527711  0.34444826  0.95159311    -0.22900
C349        C  0.23159913  0.36614040  0.92938671    -0.23100
C350        C  0.21723236  0.33193073  0.90880785    -0.00100
H351        H  0.25195679  0.36346212  0.97028754     0.13700
H352        H  0.24021779  0.40326878  0.92823062     0.13700
N353        N  0.13338697  0.44877864  0.90728484    -0.02600
C354        C  0.17543347  0.45549398  0.89746863     0.00000
C355        C  0.20814557  0.46873202  0.91808059    -0.22900
C356        C  0.18243488  0.45932264  0.94126172    -0.23100
C357        C  0.13512251  0.43798269  0.93324422    -0.00100
H358        H  0.24385013  0.47447324  0.91650196     0.13700
H359        H  0.19513412  0.45446542  0.96023017     0.13700
C360        C  0.13028161  0.49223058  0.90482199     0.81100
N361        N  0.16823536  0.53505122  0.91323417    -0.77200
C362        C  0.17170320  0.57736182  0.90710932     0.83600
N363        N  0.13497775  0.57663555  0.89404008    -0.77100
C364        C  0.09430625  0.53500783  0.88833393     0.83700
N365        N  0.09228997  0.49197451  0.89292623    -0.78800
N366        N  0.05307328  0.53845820  0.88096410    -0.02600
C367        C  0.03360654  0.52840623  0.85576977     0.00000
C368        C  0.01616129  0.55920765  0.85054229    -0.22900
C369        C  0.02334757  0.58789293  0.87288886    -0.23100
C370        C  0.04563251  0.57455337  0.89126279    -0.00100
H371        H  0.32696306  0.55608540  0.83388378     0.13700
H372        H  0.01130983  0.61404383  0.87591845     0.13700
O373        O  0.25392023  0.59791477  0.97606327    -0.80000
O374        O  0.11967656  0.34297990  0.02631591    -0.64700
O375        O  0.01090796  0.33233028  0.99298236    -1.11300
C376        C  0.05521978  0.59599494  0.91887623     1.06900
O377        O  0.16172146  0.35914314  0.98930351    -0.77900
O378        O  0.12872982  0.36355395  0.94138751    -0.65500
Ni379      Ni  0.28406950  0.29828317  0.00991586     1.34900
C380        C  0.10669228  0.38747392  0.94164264     0.85600
O381        O  0.05685947  0.37133770  0.04043847    -0.78400
O382        O  0.31031567  0.33250347  0.04398194    -0.88700
C383        C  0.15718038  0.35112548  0.01416605     0.85200
O384        O  0.28873956  0.57733596  0.02320887    -0.66900
O385        O  0.08948345  0.59953246  0.93283906    -0.82600
C386        C  0.32566221  0.58089225  0.03427807     0.86000
C387        C  0.01869059  0.36061936  0.05326228     1.07600
H388        H  0.05229787  0.59987669  0.98409860     0.39400
O389        O  0.06641850  0.63311789  0.97925727    -1.08800
O390        O  0.06375299  0.37020359  0.94930282    -0.65500
Ni391      Ni  0.01929779  0.63839253  0.96010200     1.26300
O392        O  0.03326866  0.61430096  0.02920046    -0.65700
O393        O  0.02828153  0.61227922  0.92703499    -0.78000
C394        C  0.26063998  0.61970007  0.95402632     0.85400
O395        O  0.30179859  0.64155961  0.94392059    -0.65200
Ni396      Ni  0.12355955  0.64554632  0.96177823     1.27400
Ni397      Ni  0.06463644  0.33768749  0.00999031     1.26100
H398        H  0.01626036  0.36445202  0.99011909     0.40000
N399        N  0.21275257  0.54538693  0.73173246    -0.02600
C400        C  0.17776620  0.53305063  0.71306853     0.00000
C401        C  0.15177759  0.48345545  0.70945504    -0.22900
C402        C  0.16924058  0.46441186  0.72665182    -0.23100
C403        C  0.20635511  0.50228665  0.74028003    -0.00100
H404        H  0.11922879  0.46263823  0.69819824     0.13700
H405        H  0.15247084  0.42667607  0.73114883     0.13700
N406        N  0.04341578  0.63423302  0.75319648    -0.02600
C407        C  0.05141841  0.29809178  0.77967427     0.00000
C408        C  0.04516903  0.58622842  0.78480012    -0.22900
C409        C  0.03975401  0.56258543  0.76072911    -0.23100
C410        C  0.04211993  0.59382846  0.74187335    -0.00100
H411        H  0.05630678  0.24309345  0.80267735     0.13700
H412        H  0.04326923  0.53066569  0.75719096     0.13700
N413        N  0.29335968  0.38493827  0.72147450    -0.02600
C414        C  0.25587716  0.38749604  0.73248176     0.00000
C415        C  0.22948810  0.39313039  0.71304235    -0.22900
C416        C  0.92000880  0.39897854  0.68958636    -0.23100
C417        C  0.95961415  0.39517541  0.69501194    -0.00100
H418        H  0.20024791  0.39972072  0.71618852     0.13700
H419        H  0.91360403  0.41319550  0.67170690     0.13700
C420        C  0.00142379  0.30406910  0.74718030     0.81100
N421        N  0.00330142  0.34462879  0.73740268    -0.77200
C422        C  0.96254849  0.34233112  0.72808765     0.83600
N423        N  0.25495471  0.29913417  0.72733585    -0.77100
C424        C  0.25267867  0.59261304  0.73750819     0.83700
N425        N  0.95897061  0.59627207  0.74825731    -0.78800
O426        O  0.00418188  0.47268754  0.81853095    -0.80000
O427        O  0.12782415  0.36649108  0.78371286    -0.64700
O428        O  0.24574349  0.45329302  0.81718620    -1.11300
C429        C  0.20676683  0.34079482  0.88185209     1.06900
O430        O  0.08743710  0.33548910  0.82075377    -0.77900
O431        O  0.14171986  0.40001709  0.86046238    -0.65500
Ni432      Ni  0.30045499  0.48820873  0.79515180     1.34900
C433        C  0.17900260  0.42920231  0.87335006     0.85600
O434        O  0.18940133  0.45983822  0.77893320    -0.78400
O435        O  0.26652180  0.50564005  0.76956537    -0.88700
C436        C  0.09025816  0.33737813  0.79540331     0.85200
O437        O  0.29206309  0.43589881  0.77135535    -0.66900
O438        O  0.16574099  0.33503523  0.87767745    -0.86200
C439        C  0.25391353  0.40365528  0.76051151     0.86000
C440        C  0.22270772  0.49125907  0.76518819     1.07600
H441        H  0.18689999  0.33825254  0.81383374     0.39400
O442        O  0.18512441  0.36400928  0.82382975    -1.08800
O443        O  0.21888118  0.43184205  0.86852650    -0.65500
Ni444      Ni  0.24448788  0.40649363  0.84108955     1.26300
O445        O  0.21330027  0.39053783  0.77072129    -0.65700
O446        O  0.23999844  0.35930206  0.86498403    -0.78000
C447        C  0.00521728  0.47974212  0.84382254     0.85400
O448        O  0.30409376  0.45051266  0.85748664    -0.65200
Ni449      Ni  0.13102329  0.33816224  0.84748951     1.27400
Ni450      Ni  0.18694976  0.41111061  0.80034962     1.26100
H451        H  0.24174774  0.47743665  0.82750355     0.40000
N452        N  0.16250014  0.44258292  0.56549270    -0.02600
C453        C  0.17124343  0.48649273  0.57605418     0.00000
C454        C  0.18400219  0.51890635  0.55578715    -0.22900
C455        C  0.17052485  0.49127172  0.53235138    -0.23100
C456        C  0.14875358  0.44345486  0.53981850    -0.00100
H457        H  0.19098504  0.55582199  0.55780687     0.13700
H458        H  0.16440012  0.50384457  0.51375494     0.13700
N459        N  0.33488774  0.51285118  0.55962288    -0.02600
C460        C  0.04032727  0.51259053  0.56940933     0.00000
C461        C  0.07431700  0.52366954  0.55024887    -0.22900
C462        C  0.05665290  0.53094890  0.52744406    -0.23100
C463        C  0.01306089  0.52644648  0.53377254    -0.00100
H464        H  0.10921689  0.52868437  0.55303559     0.13700
H465        H  0.07691313  0.54596055  0.50949455     0.13700
N466        N  0.24767160  0.35530834  0.58955143    -0.02600
C467        C  0.28448230  0.34829305  0.58153087     0.00000
C468        C  0.29629961  0.65938773  0.60077367    -0.22900
C469        C  0.26698001  0.65304115  0.62175760    -0.23100
C470        C  0.23773468  0.33753436  0.61445363    -0.00100
H471        H  0.32277992  0.64800073  0.59938522     0.13700
H472        H  0.26439949  0.63359126  0.63956944     0.13700
C473        C  0.20464668  0.43721845  0.56724400     0.81100
N474        N  0.20288205  0.39673051  0.57725467    -0.77200
C475        C  0.24450923  0.39701947  0.58235118     0.83600
N476        N  0.28559124  0.43796122  0.57980865    -0.77100
C477        C  0.28858681  0.47633691  0.56783412     0.83700
N478        N  0.24788611  0.47536343  0.56066930    -0.78800
O479        O  0.00521148  0.42423716  0.65482038    -0.80000
O480        O  0.15662973  0.62028634  0.61600385    -0.64700
O481        O  0.09786920  0.50385949  0.65264810    -1.11300
C482        C  0.06200871  0.59154216  0.71582443     1.06900
O483        O  0.19449167  0.65925504  0.65335568    -0.77900
O484        O  0.17808711  0.60227474  0.69408723    -0.65500
Ni485      Ni  0.06271799  0.44295240  0.63389633     1.34900
C486        C  0.15576667  0.56133444  0.70421549     0.85600
O487        O  0.15170983  0.53441035  0.60571183    -0.78400
O488        O  0.11753033  0.45497545  0.61248205    -0.88700
C489        C  0.19286094  0.65289157  0.62798930     0.85200
O490        O  0.04107162  0.46427465  0.60408067    -0.66900
O491        O  0.10521746  0.62287748  0.71165615    -0.86200
C492        C  0.04924068  0.50581082  0.59725694     0.86000
C493        C  0.14629509  0.49238325  0.60002884     1.07600
H494        H  0.08103570  0.59576259  0.65237052     0.39400
O495        O  0.10211987  0.58602177  0.66005434    -1.08800
O496        O  0.11128124  0.53955702  0.70504271    -0.65500
Ni497      Ni  0.06665007  0.52693260  0.67715553     1.26300
O498        O  0.07254578  0.54379001  0.61166578    -0.65700
O499        O  0.03841742  0.55390847  0.70077452    -0.78000
C500        C  0.00254251  0.42854534  0.68040185     0.85400
O501        O  0.03192801  0.46625302  0.69328789    -0.65200
Ni502      Ni  0.14858747  0.63836989  0.68165897     1.27400
Ni503      Ni  0.12698927  0.56075421  0.63311217     1.26100
H504        H  0.12332796  0.50239807  0.66153276     0.40000
N505        N  0.22059275  0.56222210  0.40890359    -0.02600
C506        C  0.21400409  0.51853483  0.39938913     0.00000
C507        C  0.20026693  0.48691752  0.42014225    -0.22900
C508        C  0.21155981  0.51544067  0.44322166    -0.23100
C509        C  0.23248330  0.56282061  0.43511482    -0.00100
H510        H  0.19461095  0.45041867  0.41902873     0.13700
H511        H  0.21716011  0.50414290  0.46238922     0.13700
N512        N  0.04800003  0.49219972  0.41290433    -0.02600
C513        C  0.01174224  0.49531734  0.40142419     0.00000
C514        C  0.31134020  0.48978669  0.41985908    -0.22900
C515        C  0.32525704  0.48150359  0.44359520    -0.23100
C516        C  0.03348306  0.48074005  0.43882294    -0.00100
H517        H  0.27907542  0.48974181  0.41631697     0.13700
H518        H  0.30363386  0.46998385  0.46140858     0.13700
N519        N  0.13969687  0.65675085  0.39299964    -0.02600
C520        C  0.10541671  0.66813395  0.40026098     0.00000
C521        C  0.10561398  0.70202763  0.38369290    -0.22900
C522        C  0.14008453  0.37806283  0.36533433    -0.23100
C523        C  0.15990763  0.68328273  0.37145542    -0.00100
H524        H  0.08331930  0.38527116  0.38498631     0.13700
H525        H  0.15001282  0.40300275  0.34926950     0.13700
C526        C  0.17833486  0.56691128  0.40576532     0.81100
N527        N  0.13458082  0.52759929  0.40996926    -0.77200
C528        C  0.09469166  0.53096741  0.40746674     0.83600
N529        N  0.09877071  0.57372314  0.40182025    -0.77100
C530        C  0.14067148  0.61358211  0.39939469     0.83700
N531        N  0.18132352  0.61042756  0.40068366    -0.78800
O532        O  0.98857545  0.55337103  0.49726342    -0.80000
O533        O  0.01896515  0.40143780  0.44504360    -0.64700
O534        O  0.04284631  0.64736088  0.48221940    -1.11300
C535        C  0.30776186  0.35763452  0.55513060     1.06900
O536        O  0.05288604  0.45589892  0.47828272    -0.77900
O537        O  0.07696296  0.43708090  0.52535240    -0.65500
Ni538      Ni  0.02851822  0.58622125  0.46742506     1.34900
C539        C  0.09799332  0.41360442  0.53075636     0.85600
O540        O  0.05686665  0.67989503  0.43070872    -0.78400
O541        O  0.06864116  0.61701019  0.43726571    -0.88700
C542        C  0.03812156  0.44485115  0.45410522     0.85200
O543        O  0.30606637  0.57246222  0.44812784    -0.66900
O544        O  0.31688784  0.39546403  0.54259424    -0.86200
C545        C  0.28229628  0.59391516  0.44485233     0.86000
C546        C  0.07497669  0.65332311  0.42414306     1.07600
H547        H  0.30067993  0.67894658  0.49297716     0.39400
O548        O  0.00124892  0.36149290  0.49537335    -1.08800
O549        O  0.07763790  0.36764220  0.52823102    -0.65500
Ni550      Ni  0.01451629  0.65263778  0.51484282     1.26300
O551        O  0.29916699  0.63890160  0.45020651    -0.65700
O552        O  0.31928384  0.65988038  0.54670418    -0.78000
C553        C  0.00431576  0.56199147  0.52119472     0.85400
O554        O  0.02299193  0.60459673  0.53154099    -0.65200
Ni555      Ni  0.01807943  0.42354298  0.51001570     1.27400
Ni556      Ni  0.02872583  0.35497359  0.46256204     1.26100
H557        H  0.07672289  0.66416226  0.48482687     0.40000
N558        N  0.31284241  0.67889534  0.22360045    -0.02600
C559        C  0.31109035  0.72039877  0.22873031     0.00000
C560        C  0.30175210  0.73618737  0.20550047    -0.22900
C561        C  0.29347320  0.70122109  0.18599190    -0.23100
C562        C  0.29721848  0.66460111  0.19801699    -0.00100
H563        H  0.29326359  0.76495928  0.20396441     0.13700
H564        H  0.27689682  0.69830366  0.16678221     0.13700
N565        N  0.14529549  0.42673885  0.24751349    -0.02600
C566        C  0.15035405  0.47094433  0.24360083     0.00000
C567        C  0.15672983  0.49611475  0.26769961    -0.22900
C568        C  0.15974857  0.46791404  0.28676042    -0.23100
C569        C  0.15702478  0.42740417  0.27341083    -0.00100
H570        H  0.16593156  0.53359541  0.27059462     0.13700
H571        H  0.17219997  0.48038707  0.30708668     0.13700
N572        N  0.05963630  0.58702328  0.23962245    -0.02600
C573        C  0.05948900  0.56796702  0.26362289     0.00000
C574        C  0.06823665  0.52999896  0.25874931    -0.22900
C575        C  0.06915451  0.52326676  0.23144730    -0.23100
C576        C  0.06631947  0.56032465  0.21984356    -0.00100
H577        H  0.06665865  0.50495130  0.27329289     0.13700
H578        H  0.07327716  0.49500892  0.22114164     0.13700
C579        C  0.02083960  0.67654596  0.23164307     0.81100
N580        N  0.06306729  0.38463714  0.23409136    -0.77200
C581        C  0.10414811  0.38373337  0.23768533     0.83600
N582        N  0.10248905  0.67375587  0.23924227    -0.77100
C583        C  0.06074798  0.63205836  0.23650344     0.83700
N584        N  0.01995720  0.63342503  0.23243866    -0.78800
O585        O  0.26868833  0.53914391  0.14032436    -0.80000
O586        O  0.13686586  0.59574172  0.19758902    -0.64700
O587        O  0.17974270  0.52039048  0.15904835    -1.11300
C588        C  0.17096936  0.61018971  0.08842767     1.06900
O589        O  0.07405912  0.56789931  0.17152706    -0.77900
O590        O  0.06959740  0.52105604  0.12348658    -0.65500
Ni591      Ni  0.23203350  0.51535200  0.17231279     1.34900
C592        C  0.08263157  0.49066896  0.11598915     0.85600
O593        O  0.15602772  0.52711053  0.21247219    -0.78400
O594        O  0.19690281  0.48787864  0.20443596    -0.88700
C595        C  0.09316459  0.57923106  0.19502974     0.85200
O596        O  0.26928737  0.57966120  0.18889911    -0.66900
O597        O  0.13620205  0.61045621  0.10131131    -0.86200
C598        C  0.26040893  0.61446213  0.19117279     0.86000
C599        C  0.16824022  0.49625968  0.21843229     1.07600
H600        H  0.18570449  0.62014182  0.14848212     0.39400
O601        O  0.16133919  0.58673117  0.14725893    -1.08800
O602        O  0.12600102  0.50124700  0.11477022    -0.65500
Ni603      Ni  0.18629269  0.55313734  0.12686631     1.26300
O604        O  0.21965720  0.60901475  0.18756855    -0.65700
O605        O  0.19253417  0.58823639  0.09589816    -0.78000
C606        C  0.25593114  0.52976810  0.11574168     0.85400
O607        O  0.21510880  0.52063306  0.10814059    -0.65200
Ni608      Ni  0.10582430  0.58772321  0.13627637     1.27400
Ni609      Ni  0.15870066  0.55746824  0.17965515     1.26100
H610        H  0.15359516  0.48794497  0.15715637     0.40000
O611        O  0.18964037  0.66967163  0.33199338    -0.80000
O612        O  0.31574040  0.52756613  0.27587774    -0.64700
O613        O  0.27443904  0.41399968  0.31387858    -1.11300
C614        C  0.24021815  0.51232959  0.37603372     1.06900
O615        O  0.03184554  0.56801649  0.30922524    -0.77900
O616        O  0.01198690  0.54295013  0.36552196    -0.65500
Ni617      Ni  0.22691492  0.68589531  0.29973936     1.34900
C618        C  0.33951533  0.50253153  0.37284514     0.85600
O619        O  0.31321975  0.44173672  0.26332979    -0.78400
O620        O  0.26071764  0.69612335  0.26616921    -0.88700
C621        C  0.02306660  0.55867917  0.28383684     0.85200
O622        O  0.18535062  0.37562566  0.28807169    -0.66900
O623        O  0.26654033  0.54879599  0.36185905    -0.86200
C624        C  0.19456232  0.41614840  0.27939292     0.86000
C625        C  0.29498863  0.39794464  0.25466706     1.07600
H626        H  0.24585115  0.49414057  0.31734629     0.39400
O627        O  0.27439285  0.49393399  0.32222580    -1.08800
O628        O  0.31882345  0.46520527  0.35787128    -0.65500
Ni629      Ni  0.25685836  0.44139989  0.34354095     1.26300
O630        O  0.23604905  0.44984443  0.27581541    -0.65700
O631        O  0.23756145  0.47075113  0.37235219    -0.78000
C632        C  0.19891508  0.35265494  0.35612430     0.85400
O633        O  0.23907768  0.38607599  0.36302377    -0.65200
Ni634      Ni  0.31572804  0.55732660  0.33609348     1.27400
Ni635      Ni  0.29457017  0.46907612  0.29300952     1.26100
H636        H  0.30176200  0.41098809  0.31838201     0.40000
N637        N  0.02132742  0.75355706  0.08778620    -0.02600
C638        C  0.04744024  0.77211848  0.11083373     0.00000
C639        C  0.06082630  0.73956315  0.11952658    -0.22900
C640        C  0.04743016  0.70353908  0.10014574    -0.23100
C641        C  0.02381628  0.71334977  0.08089019    -0.00100
H642        H  0.08551561  0.74592840  0.13563426     0.13700
H643        H  0.05856370  0.67657903  0.09881190     0.13700
N644        N  0.28458716  0.85289022  0.06998988    -0.02600
C645        C  0.32452092  0.88607438  0.05766252     0.00000
C646        C  0.36034639  0.91179944  0.07663688    -0.22900
C647        C  0.33916650  0.90350231  0.10093222    -0.23100
C648        C  0.29237969  0.87096874  0.09582561    -0.00100
H649        H  0.39524893  0.94167160  0.07311059     0.13700
H650        H  0.35473434  0.92356446  0.11955213     0.13700
N651        N  0.19356525  0.67635692  0.05508453    -0.02600
C652        C  0.18993016  0.67303282  0.02780136     0.00000
C653        C  0.18822894  0.96416174  0.01798001    -0.22900
C654        C  0.18384610  0.93746766  0.03958463    -0.23100
C655        C  0.18480353  0.96496449  0.06185711    -0.00100
H656        H  0.18018435  0.94956334  0.99753363     0.13700
H657        H  0.17554940  0.90010622  0.03898599     0.13700
C658        C  0.23264430  0.71964646  0.06729705     0.81100
N659        N  0.23702550  0.76426390  0.06386444    -0.77200
C660        C  0.27957321  0.80503852  0.06882191     0.83600
N661        N  0.31759616  0.80079399  0.07652455    -0.77100
C662        C  0.31370957  0.75750824  0.08053822     0.83700
N663        N  0.27101555  0.71718991  0.07623985    -0.78800
N664        N  0.21010671  0.95591898  0.91755823    -0.02600
C665        C  0.22516117  0.96472017  0.94372195     0.00000
C666        C  0.23527456  0.67778276  0.95159125    -0.22900
C667        C  0.23159669  0.69947363  0.92938430    -0.23100
C668        C  0.21723000  0.66526299  0.90880603    -0.00100
H669        H  0.25195418  0.69679773  0.97028546     0.13700
H670        H  0.24021574  0.73660189  0.92822739     0.13700
N671        N  0.13338893  0.78211285  0.90728551    -0.02600
C672        C  0.17543566  0.78882794  0.89746970     0.00000
C673        C  0.20814675  0.80206556  0.91808214    -0.22900
C674        C  0.18243492  0.79265586  0.94126300    -0.23100
C675        C  0.13512279  0.77131627  0.93324495    -0.00100
H676        H  0.24385155  0.80780739  0.91650401     0.13700
H677        H  0.19513325  0.78779853  0.96023172     0.13700
C678        C  0.13028354  0.82556476  0.90482263     0.81100
N679        N  0.16823623  0.86838547  0.91323590    -0.77200
C680        C  0.17170458  0.91069604  0.90711015     0.83600
N681        N  0.13498003  0.90996952  0.89403975    -0.77100
C682        C  0.09430912  0.86834161  0.88833295     0.83700
N683        N  0.09229299  0.82530855  0.89292549    -0.78800
N684        N  0.05307594  0.87179125  0.88096295    -0.02600
C685        C  0.03360977  0.86173981  0.85576847     0.00000
C686        C  0.01616300  0.89254019  0.85054165    -0.22900
C687        C  0.02334700  0.92122340  0.87288889    -0.23100
C688        C  0.04563302  0.90788448  0.89126247    -0.00100
H689        H  0.32696872  0.88941981  0.83388186     0.13700
H690        H  0.01130760  0.94737289  0.87591898     0.13700
O691        O  0.25392307  0.93124765  0.97606218    -0.80000
O692        O  0.11967538  0.67631384  0.02631591    -0.64700
O693        O  0.01090586  0.66566121  0.99298216    -1.11300
C694        C  0.05522113  0.92932635  0.91887595     1.06900
O695        O  0.16172093  0.69247507  0.98930379    -0.77900
O696        O  0.12872915  0.69688715  0.94138796    -0.65500
Ni697      Ni  0.28406648  0.63161477  0.00991719     1.34900
C698        C  0.10669168  0.72080715  0.94164306     0.85600
O699        O  0.05685815  0.70467161  0.04043704    -0.78400
O700        O  0.31031287  0.66583280  0.04398378    -0.88700
C701        C  0.15717943  0.68445904  0.01416658     0.85200
O702        O  0.28874252  0.91067123  0.02320844    -0.66900
O703        O  0.08948550  0.93286473  0.93283850    -0.82600
C704        C  0.32566512  0.91422771  0.03427780     0.86000
C705        C  0.01868953  0.69395079  0.05326159     1.07600
H706        H  0.05230051  0.93321013  0.98409857     0.39400
O707        O  0.06642128  0.96645072  0.97925707    -1.08800
O708        O  0.06375207  0.70353656  0.94930305    -0.65500
Ni709      Ni  0.01930089  0.97172557  0.96010149     1.26300
O710        O  0.03327170  0.94763530  0.02920078    -0.65700
O711        O  0.02828298  0.94561043  0.92703491    -0.78000
C712        C  0.26064254  0.95303219  0.95402497     0.85400
O713        O  0.30180055  0.97488884  0.94391826    -0.65200
Ni714      Ni  0.12356198  0.97887819  0.96177803     1.27400
Ni715      Ni  0.06463508  0.67102015  0.00998987     1.26100
H716        H  0.01625695  0.69778173  0.99011904     0.40000
N717        N  0.21275246  0.87872377  0.73173391    -0.02600
C718        C  0.17776408  0.86638701  0.71307127     0.00000
C719        C  0.15177507  0.81679182  0.70945808    -0.22900
C720        C  0.16924153  0.79774850  0.72665260    -0.23100
C721        C  0.20635665  0.83562345  0.74028039    -0.00100
H722        H  0.11922502  0.79597407  0.69820236     0.13700
H723        H  0.15247396  0.76001232  0.73114858     0.13700
N724        N  0.04341543  0.96757234  0.75319441    -0.02600
C725        C  0.05142209  0.63142247  0.77967304     0.00000
C726        C  0.04516479  0.91956394  0.78479692    -0.22900
C727        C  0.03974973  0.89592250  0.76072545    -0.23100
C728        C  0.04211873  0.92716782  0.74187041    -0.00100
H729        H  0.05631873  0.57642935  0.80267674     0.13700
H730        H  0.04326318  0.86400189  0.75718665     0.13700
N731        N  0.29336183  0.71826980  0.72147511    -0.02600
C732        C  0.25587921  0.72082847  0.73248135     0.00000
C733        C  0.22949042  0.72646155  0.71304120    -0.22900
C734        C  0.92001252  0.73231299  0.68958538    -0.23100
C735        C  0.95961737  0.72850895  0.69501127    -0.00100
H736        H  0.20025111  0.73305389  0.71618660     0.13700
H737        H  0.91360864  0.74653044  0.67170582     0.13700
C738        C  0.00142430  0.63739981  0.74718039     0.81100
N739        N  0.00330326  0.67795997  0.73740208    -0.77200
C740        C  0.96255024  0.67566404  0.72808801     0.83600
N741        N  0.25495569  0.63246573  0.72733697    -0.77100
C742        C  0.25267830  0.92595026  0.73750926     0.83700
N743        N  0.95896945  0.92960958  0.74825762    -0.78800
O744        O  0.00418391  0.80602143  0.81852951    -0.80000
O745        O  0.12782716  0.69982248  0.78371009    -0.64700
O746        O  0.24574412  0.78662633  0.81718521    -1.11300
C747        C  0.20676480  0.67412587  0.88184996     1.06900
O748        O  0.08743864  0.66883151  0.82075172    -0.77900
O749        O  0.14172182  0.73335198  0.86046304    -0.65500
Ni750      Ni  0.30045625  0.82154469  0.79515147     1.34900
C751        C  0.17900486  0.76253618  0.87335084     0.85600
O752        O  0.18940302  0.79316974  0.77893100    -0.78400
O753        O  0.26652383  0.83897934  0.76956653    -0.88700
C754        C  0.09026040  0.67071281  0.79540097     0.85200
O755        O  0.29206523  0.76923835  0.77135240    -0.66900
O756        O  0.16573852  0.66836509  0.87767466    -0.86200
C757        C  0.25391608  0.73699059  0.76051029     0.86000
C758        C  0.22270948  0.82459472  0.76518798     1.07600
H759        H  0.18689950  0.67158465  0.81383271     0.39400
O760        O  0.18512452  0.69734282  0.82382869    -1.08800
O761        O  0.21888322  0.76517567  0.86852651    -0.65500
Ni762      Ni  0.24448830  0.73982649  0.84108845     1.26300
O763        O  0.21330302  0.72386992  0.77072094    -0.65700
O764        O  0.23999751  0.69263421  0.86498259    -0.78000
C765        C  0.00522022  0.81307577  0.84382118     0.85400
O766        O  0.30409554  0.78384448  0.85748500    -0.65200
Ni767      Ni  0.13102225  0.67149722  0.84748746     1.27400
Ni768      Ni  0.18695116  0.74444327  0.80034792     1.26100
H769        H  0.24174716  0.81076896  0.82750264     0.40000
N770        N  0.16250090  0.77591764  0.56549323    -0.02600
C771        C  0.17124392  0.81982749  0.57605425     0.00000
C772        C  0.18400163  0.85224045  0.55578696    -0.22900
C773        C  0.17052458  0.82460511  0.53235144    -0.23100
C774        C  0.14875348  0.77678853  0.53981906    -0.00100
H775        H  0.19098332  0.88915575  0.55780635     0.13700
H776        H  0.16439936  0.83717718  0.51375486     0.13700
N777        N  0.33488959  0.84618697  0.55962481    -0.02600
C778        C  0.04032680  0.84592571  0.56941010     0.00000
C779        C  0.07431251  0.85699661  0.55024795    -0.22900
C780        C  0.05664675  0.86427366  0.52744313    -0.23100
C781        C  0.01305825  0.85977856  0.53377323    -0.00100
H782        H  0.10921089  0.86200671  0.55303329     0.13700
H783        H  0.07690466  0.87927967  0.50949216     0.13700
N784        N  0.24767200  0.68864289  0.58955230    -0.02600
C785        C  0.28448428  0.68162954  0.58153278     0.00000
C786        C  0.29629870  0.99271926  0.60077245    -0.22900
C787        C  0.26698037  0.98637323  0.62175687    -0.23100
C788        C  0.23773584  0.67087120  0.61445505    -0.00100
H789        H  0.32277724  0.98132995  0.59938303     0.13700
H790        H  0.26439895  0.96692152  0.63956810     0.13700
C791        C  0.20464780  0.77055382  0.56724488     0.81100
N792        N  0.20288300  0.73006553  0.57725518    -0.77200
C793        C  0.24450997  0.73035389  0.58235130     0.83600
N794        N  0.28559212  0.77129532  0.57980858    -0.77100
C795        C  0.28858814  0.80967210  0.56783517     0.83700
N796        N  0.24788752  0.80869954  0.56067097    -0.78800
O797        O  0.00521481  0.75757331  0.65482061    -0.80000
O798        O  0.15663222  0.95362112  0.61600401    -0.64700
O799        O  0.09787484  0.83719518  0.65265005    -1.11300
C800        C  0.06200925  0.92488185  0.71582196     1.06900
O801        O  0.19449467  0.99259043  0.65335582    -0.77900
O802        O  0.17808824  0.93561119  0.69408793    -0.65500
Ni803      Ni  0.06272133  0.77628862  0.63389694     1.34900
C804        C  0.15576650  0.89467173  0.70421705     0.85600
O805        O  0.15171225  0.86774538  0.60571239    -0.78400
O806        O  0.11753195  0.78831027  0.61248221    -0.88700
C807        C  0.19286355  0.98622664  0.62798952     0.85200
O808        O  0.04107375  0.79761086  0.60408137    -0.66900
O809        O  0.10521891  0.95621595  0.71165494    -0.86200
C810        C  0.04924222  0.83914663  0.59725765     0.86000
C811        C  0.14629666  0.82571812  0.60002912     1.07600
H812        H  0.08103961  0.92909916  0.65236961     0.39400
O813        O  0.10212332  0.91935810  0.66005394    -1.08800
O814        O  0.11128105  0.87289577  0.70504397    -0.65500
Ni815      Ni  0.06665349  0.86026960  0.67715526     1.26300
O816        O  0.07254855  0.87712557  0.61166631    -0.65700
O817        O  0.03841840  0.88724801  0.70077174    -0.78000
C818        C  0.00254524  0.76188141  0.68040189     0.85400
O819        O  0.03192816  0.79959074  0.69328795    -0.65200
Ni820      Ni  0.14859005  0.97170687  0.68165850     1.27400
Ni821      Ni  0.12699329  0.89408957  0.63311291     1.26100
H822        H  0.12335815  0.83573337  0.66154271     0.40000
N823        N  0.22059581  0.89555787  0.40890328    -0.02600
C824        C  0.21400649  0.85187044  0.39938884     0.00000
C825        C  0.20026866  0.82025286  0.42014180    -0.22900
C826        C  0.21156131  0.84877577  0.44322127    -0.23100
C827        C  0.23248555  0.89615584  0.43511458    -0.00100
H828        H  0.19461142  0.78375354  0.41902814     0.13700
H829        H  0.21716052  0.83747754  0.46238893     0.13700
N830        N  0.04800350  0.82553532  0.41290294    -0.02600
C831        C  0.01174562  0.82865337  0.40142293     0.00000
C832        C  0.31133848  0.82311495  0.41985731    -0.22900
C833        C  0.32525486  0.81483220  0.44359359    -0.23100
C834        C  0.03348768  0.81407740  0.43882207    -0.00100
H835        H  0.27907232  0.82306679  0.41631463     0.13700
H836        H  0.30363030  0.80331008  0.46140637     0.13700
N837        N  0.13970147  0.99008764  0.39300008    -0.02600
C838        C  0.10542236  0.00147191  0.40026199     0.00000
C839        C  0.10562196  0.03536812  0.38369505    -0.22900
C840        C  0.14008096  0.71139371  0.36533229    -0.23100
C841        C  0.15991338  0.01662075  0.37145645    -0.00100
H842        H  0.08331607  0.71860299  0.38498418     0.13700
H843        H  0.15000881  0.73633263  0.34926696     0.13700
C844        C  0.17833825  0.90024727  0.40576469     0.81100
N845        N  0.13458411  0.86093507  0.40996790    -0.77200
C846        C  0.09469497  0.86430293  0.40746480     0.83600
N847        N  0.09877416  0.90705894  0.40181863    -0.77100
C848        C  0.14067520  0.94691819  0.39939419     0.83700
N849        N  0.18132719  0.94376377  0.40068367    -0.78800
O850        O  0.98857864  0.88670611  0.49726321    -0.80000
O851        O  0.01896596  0.73477378  0.44504395    -0.64700
O852        O  0.04284972  0.98069624  0.48221924    -1.11300
C853        C  0.30776199  0.69096826  0.55513206     1.06900
O854        O  0.05288672  0.78923473  0.47828313    -0.77900
O855        O  0.07696288  0.77041555  0.52535338    -0.65500
Ni856      Ni  0.02852159  0.91955657  0.46742498     1.34900
C857        C  0.09799263  0.74693857  0.53075750     0.85600
O858        O  0.05687006  0.01323078  0.43070891    -0.78400
O859        O  0.06864453  0.95034569  0.43726558    -0.88700
C860        C  0.03812375  0.77818736  0.45410522     0.85200
O861        O  0.30606758  0.90579675  0.44812916    -0.66900
O862        O  0.31689005  0.72879843  0.54259580    -0.86200
C863        C  0.28229824  0.92725019  0.44485243     0.86000
C864        C  0.07498068  0.98665930  0.42414335     1.07600
H865        H  0.30068087  0.01228086  0.49297660     0.39400
O866        O  0.00124831  0.69482816  0.49537390    -1.08800
O867        O  0.07763646  0.70097633  0.52823220    -0.65500
Ni868      Ni  0.01451975  0.98597261  0.51484264     1.26300
O869        O  0.29916949  0.97223712  0.45020532    -0.65700
O870        O  0.31928594  0.99321642  0.54670396    -0.78000
C871        C  0.00431797  0.89532617  0.52119469     0.85400
O872        O  0.02299591  0.93793169  0.53154072    -0.65200
Ni873      Ni  0.01807974  0.75687850  0.51001645     1.27400
Ni874      Ni  0.02872576  0.68830917  0.46256257     1.26100
H875        H  0.07672678  0.99749810  0.48482669     0.40000
N876        N  0.31284337  0.01223071  0.22360003    -0.02600
C877        C  0.31109181  0.05373430  0.22872985     0.00000
C878        C  0.30175392  0.06952335  0.20550006    -0.22900
C879        C  0.29347462  0.03455703  0.18599150    -0.23100
C880        C  0.29721939  0.99793683  0.19801662    -0.00100
H881        H  0.29326579  0.09829553  0.20396403     0.13700
H882        H  0.27689832  0.03163971  0.16678180     0.13700
N883        N  0.14529685  0.76007330  0.24751212    -0.02600
C884        C  0.15035414  0.80427832  0.24359936     0.00000
C885        C  0.15672904  0.82944863  0.26769810    -0.22900
C886        C  0.15974931  0.80124893  0.28675896    -0.23100
C887        C  0.15702618  0.76073932  0.27340952    -0.00100
H888        H  0.16592957  0.86692898  0.27059301     0.13700
H889        H  0.17220041  0.81372224  0.30708524     0.13700
N890        N  0.05963320  0.92035687  0.23962001    -0.02600
C891        C  0.05948543  0.90129989  0.26362033     0.00000
C892        C  0.06823383  0.86333240  0.25874659    -0.22900
C893        C  0.06915289  0.85660109  0.23144464    -0.23100
C894        C  0.06631794  0.89365910  0.21984112    -0.00100
H895        H  0.06665649  0.83828496  0.27329009     0.13700
H896        H  0.07327748  0.82834448  0.22113894     0.13700
C897        C  0.02083807  0.00988129  0.23164256     0.81100
N898        N  0.06306845  0.71796986  0.23409051    -0.77200
C899        C  0.10414966  0.71706692  0.23768450     0.83600
N900        N  0.10248710  0.00708964  0.23924019    -0.77100
C901        C  0.06074563  0.96539249  0.23650143     0.83700
N902        N  0.01995506  0.96676002  0.23243760    -0.78800
O903        O  0.26869214  0.87248408  0.14032451    -0.80000
O904        O  0.13686536  0.92907645  0.19758740    -0.64700
O905        O  0.17974466  0.85372597  0.15904799    -1.11300
C906        C  0.17097103  0.94352285  0.08842673     1.06900
O907        O  0.07405896  0.90123235  0.17152481    -0.77900
O908        O  0.06959811  0.85438862  0.12348443    -0.65500
Ni909      Ni  0.23203617  0.84868906  0.17231245     1.34900
C910        C  0.08263295  0.82400172  0.11598782     0.85600
O911        O  0.15602984  0.86044655  0.21247145    -0.78400
O912        O  0.19690396  0.82121344  0.20443482    -0.88700
C913        C  0.09316399  0.91256563  0.19502760     0.85200
O914        O  0.26928798  0.91299694  0.18890037    -0.66900
O915        O  0.13620307  0.94378898  0.10130972    -0.86200
C916        C  0.26040984  0.94779811  0.19117247     0.86000
C917        C  0.16824132  0.82959458  0.21843114     1.07600
H918        H  0.18570438  0.95347557  0.14848044     0.39400
O919        O  0.16133948  0.92006485  0.14725759    -1.08800
O920        O  0.12600262  0.83458016  0.11476983    -0.65500
Ni921      Ni  0.18629405  0.88647138  0.12686574     1.26300
O922        O  0.21965846  0.94235096  0.18756682    -0.65700
O923        O  0.19253532  0.92156922  0.09589739    -0.78000
C924        C  0.25593468  0.86310524  0.11574191     0.85400
O925        O  0.21511157  0.85396771  0.10814079    -0.65200
Ni926      Ni  0.10582445  0.92105585  0.13627437     1.27400
Ni927      Ni  0.15870179  0.89080342  0.17965416     1.26100
H928        H  0.15359794  0.82128069  0.15715624     0.40000
O929        O  0.18964241  0.00300799  0.33199327    -0.80000
O930        O  0.31574119  0.86089897  0.27587714    -0.64700
O931        O  0.27443764  0.74733239  0.31387819    -1.11300
C932        C  0.24021898  0.84566450  0.37603305     1.06900
O933        O  0.03184256  0.90134918  0.30922285    -0.77900
O934        O  0.01198567  0.87628485  0.36552060    -0.65500
Ni935      Ni  0.22691705  0.01923017  0.29973910     1.34900
C936        C  0.33951586  0.83586457  0.37284408     0.85600
O937        O  0.31322132  0.77506910  0.26333034    -0.78400
O938        O  0.26072059  0.02945780  0.26616926    -0.88700
C939        C  0.02306305  0.89201097  0.28383453     0.85200
O940        O  0.18534964  0.70895999  0.28807205    -0.66900
O941        O  0.26654125  0.88213073  0.36185843    -0.86200
C942        C  0.19456265  0.74948239  0.27939216     0.86000
C943        C  0.29498842  0.73127711  0.25466716     1.07600
H944        H  0.24585074  0.82747441  0.31734484     0.39400
O945        O  0.27439242  0.82726770  0.32222482    -1.08800
O946        O  0.31882249  0.79853824  0.35787037    -0.65500
Ni947      Ni  0.25685717  0.77473358  0.34354015     1.26300
O948        O  0.23604989  0.78317688  0.27581378    -0.65700
O949        O  0.23756099  0.80408560  0.37235117    -0.78000
C950        C  0.19891320  0.68598758  0.35612360     0.85400
O951        O  0.23907535  0.71940965  0.36302318    -0.65200
Ni952      Ni  0.31572828  0.89066051  0.33609285     1.27400
Ni953      Ni  0.29457028  0.80240900  0.29300916     1.26100
H954        H  0.30176045  0.74432024  0.31838192     0.40000
N955        N  0.35466337  0.08689431  0.08778452    -0.02600
C956        C  0.38077454  0.10545540  0.11083256     0.00000
C957        C  0.39416053  0.07290024  0.11952580    -0.22900
C958        C  0.38076624  0.03687675  0.10014469    -0.23100
C959        C  0.35715330  0.04668753  0.08088863    -0.00100
H960        H  0.41884871  0.07926536  0.13563409     0.13700
H961        H  0.39189957  0.00991644  0.09881131     0.13700
N962        N  0.61792034  0.18622508  0.06998904    -0.02600
C963        C  0.65785399  0.21940876  0.05766155     0.00000
C964        C  0.69367904  0.24513552  0.07663592    -0.22900
C965        C  0.67249863  0.23683988  0.10093102    -0.23100
C966        C  0.62571233  0.20430486  0.09582441    -0.00100
H967        H  0.72858148  0.27500773  0.07310947     0.13700
H968        H  0.68806579  0.25690315  0.11955075     0.13700
N969        N  0.52689994  0.00969227  0.05508563    -0.02600
C970        C  0.52326718  0.00636930  0.02780238     0.00000
C971        C  0.52155857  0.29749232  0.01797795    -0.22900
C972        C  0.51717501  0.27079845  0.03958285    -0.23100
C973        C  0.51813592  0.29829725  0.06185514    -0.00100
H974        H  0.51351205  0.28289299  0.99753180     0.13700
H975        H  0.50887613  0.23343637  0.03898461     0.13700
C976        C  0.56597851  0.05298166  0.06729849     0.81100
N977        N  0.57035852  0.09759866  0.06386637    -0.77200
C978        C  0.61290661  0.13837363  0.06882194     0.83600
N979        N  0.65093067  0.13413009  0.07652330    -0.77100
C980        C  0.64704519  0.09084484  0.08053695     0.83700
N981        N  0.60435110  0.05052599  0.07623984    -0.78800
N982        N  0.54343963  0.28925319  0.91755843    -0.02600
C983        C  0.55849275  0.29805342  0.94372237     0.00000
C984        C  0.56861149  0.01111777  0.95159064    -0.22900
C985        C  0.56493134  0.03280821  0.92938407    -0.23100
C986        C  0.55056385  0.99859753  0.90880573    -0.00100
H987        H  0.58529199  0.03013284  0.97028466     0.13700
H988        H  0.57354960  0.06993633  0.92822742     0.13700
N989        N  0.46672236  0.11544675  0.90728457    -0.02600
C990        C  0.50876901  0.12216296  0.89746792     0.00000
C991        C  0.54148109  0.13540045  0.91807980    -0.22900
C992        C  0.51577022  0.12598907  0.94126098    -0.23100
C993        C  0.46845774  0.10464912  0.93324366    -0.00100
H994        H  0.57718591  0.14114248  0.91650091     0.13700
H995        H  0.52846968  0.12113100  0.96022913     0.13700
C996        C  0.46361634  0.15889871  0.90482280     0.81100
N997        N  0.50156944  0.20171951  0.91323570    -0.77200
C998        C  0.50503782  0.24403021  0.90710998     0.83600
N999        N  0.46831298  0.24330371  0.89403989    -0.77100
C1000       C  0.42764193  0.20167585  0.88833323     0.83700
N1001       N  0.42562560  0.15864271  0.89292596    -0.78800
N1002       N  0.38640890  0.20512562  0.88096279    -0.02600
C1003       C  0.36694309  0.19507425  0.85576821     0.00000
C1004       C  0.34949534  0.22587383  0.85054146    -0.22900
C1005       C  0.35667854  0.25455665  0.87288868    -0.23100
C1006       C  0.37896505  0.24121835  0.89126223    -0.00100
H1007       H  0.66030078  0.22275219  0.83388254     0.13700
H1008       H  0.34463837  0.28070554  0.87591871     0.13700
O1009       O  0.58725546  0.26458236  0.97606273    -0.80000
O1010       O  0.45301111  0.00964796  0.02631569    -0.64700
O1011       O  0.34424207  0.99899496  0.99298103    -1.11300
C1012       C  0.38855335  0.26266081  0.91887547     1.06900
O1013       O  0.49505715  0.02580746  0.98930371    -0.77900
O1014       O  0.46206578  0.03022102  0.94138823    -0.65500
Ni1015     Ni  0.61740314  0.96495068  0.00991603     1.34900
C1016       C  0.44002712  0.05413981  0.94164197     0.85600
O1017       O  0.39019491  0.03800763  0.04043566    -0.78400
O1018       O  0.64364996  0.99917025  0.04398224    -0.88700
C1019       C  0.49051529  0.01779276  0.01416667     0.85200
O1020       O  0.62207472  0.24400525  0.02320825    -0.66900
O1021       O  0.42281701  0.26619799  0.93283811    -0.82600
C1022       C  0.65899764  0.24756094  0.03427669     0.86000
C1023       C  0.35202643  0.02728760  0.05326018     1.07600
H1024       H  0.38563332  0.26654408  0.98409697     0.39400
O1025       O  0.39975394  0.29978494  0.97925615    -1.08800
O1026       O  0.39708703  0.03686829  0.94930120    -0.65500
Ni1027     Ni  0.35263324  0.30505991  0.96010140     1.26300
O1028       O  0.36660417  0.28096583  0.02919879    -0.65700
O1029       O  0.36161628  0.27894652  0.92703421    -0.78000
C1030       C  0.59397480  0.28636674  0.95402552     0.85400
O1031       O  0.63513268  0.30822351  0.94391868    -0.65200
Ni1032     Ni  0.45689431  0.31221270  0.96177674     1.27400
Ni1033     Ni  0.39797113  0.00435416  0.00998918     1.26100
H1034       H  0.34959369  0.03111635  0.99011734     0.40000
N1035       N  0.54608564  0.21205603  0.73173323    -0.02600
C1036       C  0.51109686  0.19971905  0.71307096     0.00000
C1037       C  0.48510698  0.15012386  0.70945833    -0.22900
C1038       C  0.50257298  0.13108073  0.72665328    -0.23100
C1039       C  0.53968908  0.16895594  0.74028027    -0.00100
H1040       H  0.45255673  0.12930641  0.69820272     0.13700
H1041       H  0.48580463  0.09334487  0.73115008     0.13700
N1042       N  0.37674904  0.30090453  0.75319541    -0.02600
C1043       C  0.38475501  0.96475964  0.77967174     0.00000
C1044       C  0.37849756  0.25289713  0.78479868    -0.22900
C1045       C  0.37308525  0.22925594  0.76072739    -0.23100
C1046       C  0.37545449  0.26050081  0.74187199    -0.00100
H1047       H  0.38964909  0.90976435  0.80267472     0.13700
H1048       H  0.37660000  0.19733598  0.75718918     0.13700
N1049       N  0.62669246  0.05160480  0.72147441    -0.02600
C1050       C  0.58920987  0.05416313  0.73248082     0.00000
C1051       C  0.56282171  0.05979755  0.71304083    -0.22900
C1052       C  0.25334452  0.06565049  0.68958486    -0.23100
C1053       C  0.29294858  0.06184488  0.69501069    -0.00100
H1054       H  0.53358216  0.06638934  0.71618634     0.13700
H1055       H  0.24694114  0.07986850  0.67170539     0.13700
C1056       C  0.33475723  0.97073739  0.74717986     0.81100
N1057       N  0.33663513  0.01129666  0.73740108    -0.77200
C1058       C  0.29588150  0.00899964  0.72808741     0.83600
N1059       N  0.58828783  0.96580114  0.72733685    -0.77100
C1060       C  0.58601239  0.25928216  0.73750793     0.83700
N1061       N  0.29230348  0.26294074  0.74825608    -0.78800
O1062       O  0.33751889  0.13935693  0.81852887    -0.80000
O1063       O  0.46115904  0.03316102  0.78371049    -0.64700
O1064       O  0.57907807  0.11996099  0.81718486    -1.11300
C1065       C  0.54009809  0.00746065  0.88184965     1.06900
O1066       O  0.42077081  0.00216269  0.82075129    -0.77900
O1067       O  0.47505487  0.06668711  0.86046121    -0.65500
Ni1068     Ni  0.63378968  0.15487740  0.79515040     1.34900
C1069       C  0.51233789  0.09587116  0.87334907     0.85600
O1070       O  0.52273643  0.12650816  0.77893293    -0.78400
O1071       O  0.59985665  0.17230978  0.76956467    -0.88700
C1072       C  0.42359273  0.00404860  0.79540071     0.85200
O1073       O  0.62539670  0.10256805  0.77135329    -0.66900
O1074       O  0.49907232  0.00170151  0.87767483    -0.86200
C1075       C  0.58724681  0.07032395  0.76051004     0.86000
C1076       C  0.55604257  0.15792885  0.76518791     1.07600
H1077       H  0.52023177  0.00491943  0.81383121     0.39400
O1078       O  0.51845720  0.03067743  0.82382778    -1.08800
O1079       O  0.55221605  0.09850973  0.86852523    -0.65500
Ni1080     Ni  0.57782132  0.07316034  0.84108753     1.26300
O1081       O  0.54663387  0.05720673  0.77071998    -0.65700
O1082       O  0.57333001  0.02596753  0.86498167    -0.78000
C1083       C  0.33855423  0.14641044  0.84382059     0.85400
O1084       O  0.63742868  0.11717786  0.85748414    -0.65200
Ni1085     Ni  0.46435558  0.00483173  0.84748714     1.27400
Ni1086     Ni  0.52028400  0.07777966  0.80034821     1.26100
H1087       H  0.57508267  0.14410443  0.82750257     0.40000
N1088       N  0.49583583  0.10925199  0.56549353    -0.02600
C1089       C  0.50457925  0.15316199  0.57605473     0.00000
C1090       C  0.51733747  0.18557518  0.55578752    -0.22900
C1091       C  0.50385989  0.15794013  0.53235192    -0.23100
C1092       C  0.48208846  0.11012348  0.53981936    -0.00100
H1093       H  0.52431980  0.22249068  0.55780707     0.13700
H1094       H  0.49773486  0.17051260  0.51375543     0.13700
N1095       N  0.66822403  0.17951940  0.55962404    -0.02600
C1096       C  0.37366218  0.17926036  0.56940967     0.00000
C1097       C  0.40764988  0.19033552  0.55024829    -0.22900
C1098       C  0.38998409  0.19761210  0.52744332    -0.23100
C1099       C  0.34639345  0.19311248  0.53377256    -0.00100
H1100       H  0.44254948  0.19534909  0.55303430     0.13700
H1101       H  0.41024289  0.21262082  0.50949297     0.13700
N1102       N  0.58100689  0.02197663  0.58955288    -0.02600
C1103       C  0.61781823  0.01496212  0.58153282     0.00000
C1104       C  0.62963208  0.32605270  0.60077151    -0.22900
C1105       C  0.60031529  0.31970851  0.62175648    -0.23100
C1106       C  0.57106935  0.00420221  0.61445491    -0.00100
H1107       H  0.65611115  0.31466411  0.59938215     0.13700
H1108       H  0.59773548  0.30025866  0.63956824     0.13700
C1109       C  0.53798247  0.10388739  0.56724512     0.81100
N1110       N  0.53621770  0.06339954  0.57725621    -0.77200
C1111       C  0.57784475  0.06368809  0.58235272     0.83600
N1112       N  0.61892691  0.10462947  0.57980970    -0.77100
C1113       C  0.62192277  0.14300524  0.56783509     0.83700
N1114       N  0.58122213  0.14203221  0.56067042    -0.78800
O1115       O  0.33854763  0.09090817  0.65482030    -0.80000
O1116       O  0.48996616  0.28695590  0.61600433    -0.64700
O1117       O  0.43120782  0.17052955  0.65264989    -1.11300
C1118       C  0.39534467  0.25821501  0.71582342     1.06900
O1119       O  0.52782946  0.32592333  0.65335614    -0.77900
O1120       O  0.51142225  0.26894324  0.69408774    -0.65500
Ni1121     Ni  0.39605451  0.10962318  0.63389683     1.34900
C1122       C  0.48909995  0.22800407  0.70421694     0.85600
O1123       O  0.48504695  0.20108024  0.60571263    -0.78400
O1124       O  0.45086564  0.12164497  0.61248222    -0.88700
C1125       C  0.52619791  0.31956063  0.62798974     0.85200
O1126       O  0.37440754  0.13094553  0.60408122    -0.66900
O1127       O  0.43855446  0.28954884  0.71165620    -0.86200
C1128       C  0.38257694  0.17248146  0.59725729     0.86000
C1129       C  0.47963112  0.15905282  0.60002933     1.07600
H1130       H  0.41437293  0.26243448  0.65236991     0.39400
O1131       O  0.43545717  0.25269246  0.66005439    -1.08800
O1132       O  0.44461460  0.20622887  0.70504408    -0.65500
Ni1133     Ni  0.39998689  0.19360375  0.67715557     1.26300
O1134       O  0.40588321  0.21046051  0.61166592    -0.65700
O1135       O  0.37175296  0.22058194  0.70077286    -0.78000
C1136       C  0.33587746  0.09521614  0.68040157     0.85400
O1137       O  0.36526138  0.13292453  0.69328791    -0.65200
Ni1138     Ni  0.48192498  0.30504002  0.68165919     1.27400
Ni1139     Ni  0.46032703  0.22742419  0.63311303     1.26100
H1140       H  0.45668721  0.16906734  0.66154149     0.40000
N1141       N  0.55392778  0.22888889  0.40890330    -0.02600
C1142       C  0.54733986  0.18520199  0.39938882     0.00000
C1143       C  0.53360195  0.15358420  0.42014173    -0.22900
C1144       C  0.54489293  0.18210672  0.44322133    -0.23100
C1145       C  0.56581691  0.22948679  0.43511469    -0.00100
H1146       H  0.52794612  0.11708540  0.41902816     0.13700
H1147       H  0.55049195  0.17080855  0.46238908     0.13700
N1148       N  0.38133571  0.15886718  0.41290303    -0.02600
C1149       C  0.34507814  0.16198552  0.40142306     0.00000
C1150       C  0.64467425  0.15645210  0.41985814    -0.22900
C1151       C  0.65859220  0.14817168  0.44359466    -0.23100
C1152       C  0.36682103  0.14741151  0.43882240    -0.00100
H1153       H  0.61240962  0.15640749  0.41631609     0.13700
H1154       H  0.63696985  0.13665400  0.46140845     0.13700
N1155       N  0.47303331  0.32341854  0.39299959    -0.02600
C1156       C  0.43875444  0.33480313  0.40026167     0.00000
C1157       C  0.43895405  0.36869933  0.38369469    -0.22900
C1158       C  0.47341508  0.04472779  0.36533191    -0.23100
C1159       C  0.49324467  0.34995107  0.37145575    -0.00100
H1160       H  0.41665094  0.05193743  0.38498437     0.13700
H1161       H  0.48334210  0.06966616  0.34926635     0.13700
C1162       C  0.51167016  0.23357806  0.40576427     0.81100
N1163       N  0.46791602  0.19426596  0.40996750    -0.77200
C1164       C  0.42802701  0.19763398  0.40746417     0.83600
N1165       N  0.43210623  0.24038989  0.40181776    -0.77100
C1166       C  0.47400715  0.28024909  0.39939357     0.83700
N1167       N  0.51465911  0.27709457  0.40068312    -0.78800
O1168       O  0.32191057  0.22003831  0.49726305    -0.80000
O1169       O  0.35230053  0.06810834  0.44504413    -0.64700
O1170       O  0.37618199  0.31402798  0.48221868    -1.11300
C1171       C  0.64109588  0.02430137  0.55513210     1.06900
O1172       O  0.38621997  0.12256925  0.47828350    -0.77900
O1173       O  0.41029768  0.10375033  0.52535316    -0.65500
Ni1174     Ni  0.36185382  0.25288823  0.46742477     1.34900
C1175       C  0.43132763  0.08027357  0.53075752     0.85600
O1176       O  0.39019983  0.34656013  0.43070787    -0.78400
O1177       O  0.40197755  0.28367739  0.43726561    -0.88700
C1178       C  0.37145688  0.11152167  0.45410567     0.85200
O1179       O  0.63939934  0.23912774  0.44812845    -0.66900
O1180       O  0.65022317  0.06213128  0.54259589    -0.86200
C1181       C  0.61562959  0.26058094  0.44485237     0.86000
C1182       C  0.40831229  0.31999002  0.42414289     1.07600
H1183       H  0.63401406  0.34561218  0.49297608     0.39400
O1184       O  0.33458284  0.02816224  0.49537387    -1.08800
O1185       O  0.41097159  0.03431135  0.52823238    -0.65500
Ni1186     Ni  0.34785266  0.31930496  0.51484216     1.26300
O1187       O  0.63250062  0.30556769  0.45020547    -0.65700
O1188       O  0.65261980  0.32654911  0.54670334    -0.78000
C1189       C  0.33765079  0.22865869  0.52119435     0.85400
O1190       O  0.35632892  0.27126432  0.53154022    -0.65200
Ni1191     Ni  0.35141373  0.09021250  0.51001663     1.27400
Ni1192     Ni  0.36206124  0.02164421  0.46256268     1.26100
H1193       H  0.41005947  0.33083031  0.48482589     0.40000
N1194       N  0.64617760  0.34556416  0.22359948    -0.02600
C1195       C  0.64442463  0.38706713  0.22872970     0.00000
C1196       C  0.63508376  0.40285464  0.20550027    -0.22900
C1197       C  0.62680540  0.36788893  0.18599154    -0.23100
C1198       C  0.63055267  0.33126966  0.19801614    -0.00100
H1199       H  0.62659341  0.43162535  0.20396469     0.13700
H1200       H  0.61022759  0.36497081  0.16678223     0.13700
N1201       N  0.47862989  0.09340657  0.24751001    -0.02600
C1202       C  0.48368622  0.13761133  0.24359744     0.00000
C1203       C  0.49006159  0.16278173  0.26769620    -0.22900
C1204       C  0.49308273  0.13458236  0.28675690    -0.23100
C1205       C  0.49036000  0.09407306  0.27340732    -0.00100
H1206       H  0.49926228  0.20026211  0.27059118     0.13700
H1207       H  0.50553498  0.14705616  0.30708297     0.13700
N1208       N  0.39296961  0.25369251  0.23961979    -0.02600
C1209       C  0.39282104  0.23463437  0.26361985     0.00000
C1210       C  0.40156924  0.19666684  0.25874556    -0.22900
C1211       C  0.40248949  0.18993719  0.23144351    -0.23100
C1212       C  0.39965506  0.22699592  0.21984058    -0.00100
H1213       H  0.39999076  0.17161818  0.27328856     0.13700
H1214       H  0.40661295  0.16168030  0.22113731     0.13700
C1215       C  0.35417310  0.34321549  0.23164114     0.81100
N1216       N  0.39640125  0.05130359  0.23408949    -0.77200
C1217       C  0.43748228  0.05040014  0.23768279     0.83600
N1218       N  0.43582213  0.34042502  0.23924153    -0.77100
C1219       C  0.39408130  0.29872772  0.23650161     0.83700
N1220       N  0.35329076  0.30009455  0.23243624    -0.78800
O1221       O  0.60202398  0.20581669  0.14032325    -0.80000
O1222       O  0.47020203  0.26241348  0.19758642    -0.64700
O1223       O  0.51307669  0.18705994  0.15904623    -1.11300
C1224       C  0.50430549  0.27685797  0.08842535     1.06900
O1225       O  0.40739529  0.23457146  0.17152440    -0.77900
O1226       O  0.40293264  0.18772495  0.12348495    -0.65500
Ni1227     Ni  0.56536720  0.18202122  0.17231076     1.34900
C1228       C  0.41596724  0.15733859  0.11598667     0.85600
O1229       O  0.48936359  0.19378141  0.21247007    -0.78400
O1230       O  0.53023387  0.15454472  0.20443246    -0.88700
C1231       C  0.42650079  0.24590354  0.19502707     0.85200
O1232       O  0.60262027  0.24632864  0.18889980    -0.66900
O1233       O  0.46953714  0.27712349  0.10130826    -0.86200
C1234       C  0.59374319  0.28113062  0.19117181     0.86000
C1235       C  0.50157301  0.16292763  0.21842925     1.07600
H1236       H  0.51903988  0.28681220  0.14847942     0.39400
O1237       O  0.49467434  0.25340108  0.14725644    -1.08800
O1238       O  0.45933685  0.16791739  0.11476711    -0.65500
Ni1239     Ni  0.51962808  0.21980701  0.12686437     1.26300
O1240       O  0.55299254  0.27568445  0.18756529    -0.65700
O1241       O  0.52587140  0.25490633  0.09589649    -0.78000
C1242       C  0.58926708  0.19643948  0.11574055     0.85400
O1243       O  0.54844434  0.18730257  0.10813929    -0.65200
Ni1244     Ni  0.43915972  0.25439286  0.13627351     1.27400
Ni1245     Ni  0.49203573  0.22413864  0.17965279     1.26100
H1246       H  0.48692889  0.15461471  0.15715414     0.40000
O1247       O  0.52297603  0.33633930  0.33199342    -0.80000
O1248       O  0.64907664  0.19423480  0.27587721    -0.64700
O1249       O  0.60777173  0.08066681  0.31387702    -1.11300
C1250       C  0.57355384  0.17899713  0.37603330     1.06900
O1251       O  0.36517847  0.23468351  0.30922270    -0.77900
O1252       O  0.34532162  0.20961814  0.36552049    -0.65500
Ni1253     Ni  0.56025020  0.35256304  0.29973925     1.34900
C1254       C  0.67284918  0.16919610  0.37284406     0.85600
O1255       O  0.64655425  0.10840470  0.26332895    -0.78400
O1256       O  0.59405265  0.36279137  0.26616893    -0.88700
C1257       C  0.35639883  0.22534590  0.28383430     0.85200
O1258       O  0.51868450  0.04229398  0.28806853    -0.66900
O1259       O  0.59987681  0.21546387  0.36185905    -0.86200
C1260       C  0.52789711  0.08281716  0.27939002     0.86000
C1261       C  0.62832288  0.06461260  0.25466625     1.07600
H1262       H  0.57918655  0.16080955  0.31734531     0.39400
O1263       O  0.60772765  0.16060211  0.32222488    -1.08800
O1264       O  0.65215648  0.13187033  0.35786991    -0.65500
Ni1265     Ni  0.59019168  0.10806695  0.34353957     1.26300
O1266       O  0.56938417  0.11651382  0.27581400    -0.65700
O1267       O  0.57089598  0.13741828  0.37235119    -0.78000
C1268       C  0.53224651  0.01932130  0.35612214     0.85400
O1269       O  0.57240926  0.05274193  0.36302185    -0.65200
Ni1270     Ni  0.64906412  0.22399411  0.33609329     1.27400
Ni1271     Ni  0.62790469  0.13574411  0.29300855     1.26100
H1272       H  0.63509377  0.07765445  0.31838035     0.40000
N1273       N  0.35466031  0.42022391  0.08778626    -0.02600
C1274       C  0.38076925  0.43878394  0.11083507     0.00000
C1275       C  0.39415374  0.40622798  0.11952890    -0.22900
C1276       C  0.38076210  0.37020594  0.10014706    -0.23100
C1277       C  0.35715140  0.38001784  0.08089013    -0.00100
H1278       H  0.41884016  0.41259220  0.13563806     0.13700
H1279       H  0.39189587  0.34324607  0.09881405     0.13700
N1280       N  0.61792025  0.51955681  0.06999053    -0.02600
C1281       C  0.65785375  0.55274106  0.05766313     0.00000
C1282       C  0.69367782  0.57846914  0.07663782    -0.22900
C1283       C  0.67249652  0.57017351  0.10093270    -0.23100
C1284       C  0.62571070  0.53763712  0.09582579    -0.00100
H1285       H  0.72857991  0.60834206  0.07311152     0.13700
H1286       H  0.68806277  0.59023716  0.11955248     0.13700
N1287       N  0.52690165  0.34302487  0.05508291    -0.02600
C1288       C  0.52326810  0.33970181  0.02779971     0.00000
C1289       C  0.52154800  0.63081795  0.01797929    -0.22900
C1290       C  0.51716684  0.60412549  0.03958441    -0.23100
C1291       C  0.51813254  0.63162657  0.06185675    -0.00100
H1292       H  0.51349822  0.61621742  0.99753343     0.13700
H1293       H  0.50886571  0.56676273  0.03898652     0.13700
C1294       C  0.56597965  0.38631361  0.06729655     0.81100
N1295       N  0.57036045  0.43093093  0.06386476    -0.77200
C1296       C  0.61290712  0.47170555  0.06882402     0.83600
N1297       N  0.65092978  0.46746138  0.07652785    -0.77100
C1298       C  0.64704390  0.42417516  0.08053959     0.83700
N1299       N  0.60435054  0.38385683  0.07623976    -0.78800
N1300       N  0.54343789  0.62258490  0.91755986    -0.02600
C1301       C  0.55849099  0.63138487  0.94372379     0.00000
C1302       C  0.56861163  0.34445196  0.95159141    -0.22900
C1303       C  0.56493212  0.36614278  0.92938482    -0.23100
C1304       C  0.55056419  0.33193204  0.90880647    -0.00100
H1305       H  0.58529222  0.36346682  0.97028546     0.13700
H1306       H  0.57355092  0.40327109  0.92822819     0.13700
N1307       N  0.46672031  0.44877954  0.90728431    -0.02600
C1308       C  0.50876692  0.45549564  0.89746773     0.00000
C1309       C  0.54147929  0.46873371  0.91807953    -0.22900
C1310       C  0.51576875  0.45932287  0.94126078    -0.23100
C1311       C  0.46845629  0.43798275  0.93324349    -0.00100
H1312       H  0.57718407  0.47447565  0.91650062     0.13700
H1313       H  0.52846837  0.45446514  0.96022896     0.13700
C1314       C  0.46361451  0.49223149  0.90482229     0.81100
N1315       N  0.50156778  0.53505187  0.91323526    -0.77200
C1316       C  0.50503529  0.57736273  0.90711132     0.83600
N1317       N  0.46830970  0.57663699  0.89404254    -0.77100
C1318       C  0.42763880  0.53500928  0.88833531     0.83700
N1319       N  0.42562312  0.49197582  0.89292642    -0.78800
N1320       N  0.38640586  0.53845934  0.88096496    -0.02600
C1321       C  0.36693927  0.52840711  0.85577059     0.00000
C1322       C  0.34949164  0.55920674  0.85054358    -0.22900
C1323       C  0.35667581  0.58789054  0.87289057    -0.23100
C1324       C  0.37896255  0.57455251  0.89126416    -0.00100
H1325       H  0.66029950  0.55608781  0.83388179     0.13700
H1326       H  0.34463601  0.61403974  0.87592053     0.13700
O1327       O  0.58725545  0.59791342  0.97606284    -0.80000
O1328       O  0.45301130  0.34297900  0.02631461    -0.64700
O1329       O  0.34424208  0.33232864  0.99298187    -1.11300
C1330       C  0.38855083  0.59599482  0.91887741     1.06900
O1331       O  0.49505651  0.35914137  0.98930213    -0.77900
O1332       O  0.46206353  0.36355362  0.94138635    -0.65500
Ni1333     Ni  0.61740197  0.29828361  0.00991615     1.34900
C1334       C  0.44002611  0.38747380  0.94164183     0.85600
O1335       O  0.39019403  0.37133612  0.04043766    -0.78400
O1336       O  0.64364879  0.33250256  0.04398263    -0.88700
C1337       C  0.49051554  0.35112546  0.01416497     0.85200
O1338       O  0.62207414  0.57733637  0.02320902    -0.66900
O1339       O  0.42281462  0.59953211  0.93283999    -0.82600
C1340       C  0.65899708  0.58089299  0.03427800     0.86000
C1341       C  0.35202527  0.36061826  0.05326148     1.07600
H1342       H  0.38562986  0.59987682  0.98409945     0.39400
O1343       O  0.39975093  0.63311816  0.97925827    -1.08800
O1344       O  0.39708702  0.37020360  0.94930243    -0.65500
Ni1345     Ni  0.35263069  0.63839381  0.96010319     1.26300
O1346       O  0.36660127  0.61430073  0.02920144    -0.65700
O1347       O  0.36161343  0.61228001  0.92703623    -0.78000
C1348       C  0.59397418  0.61969937  0.95402623     0.85400
O1349       O  0.63513233  0.64155915  0.94391994    -0.65200
Ni1350     Ni  0.45689152  0.64554572  0.96177903     1.27400
Ni1351     Ni  0.39797085  0.33768614  0.00998935     1.26100
H1352       H  0.34959405  0.36444944  0.99011901     0.40000
N1353       N  0.54608570  0.54538805  0.73173162    -0.02600
C1354       C  0.51109897  0.53305242  0.71306809     0.00000
C1355       C  0.48511096  0.48345740  0.70945364    -0.22900
C1356       C  0.50257530  0.46441319  0.72664913    -0.23100
C1357       C  0.53968950  0.50228752  0.74027781    -0.00100
H1358       H  0.45256181  0.46264036  0.69819710     0.13700
H1359       H  0.48580630  0.42667706  0.73114524     0.13700
N1360       N  0.37674895  0.63423486  0.75319779    -0.02600
C1361       C  0.38475305  0.29809226  0.77967210     0.00000
C1362       C  0.37849969  0.58622820  0.78480088    -0.22900
C1363       C  0.37308697  0.56258696  0.76072950    -0.23100
C1364       C  0.37545470  0.59383150  0.74187423    -0.00100
H1365       H  0.38964551  0.24309646  0.80267530     0.13700
H1366       H  0.37660190  0.53066713  0.75719106     0.13700
N1367       N  0.62669526  0.38493807  0.72147376    -0.02600
C1368       C  0.58921290  0.38749657  0.73248065     0.00000
C1369       C  0.56282383  0.39313007  0.71304098    -0.22900
C1370       C  0.25334162  0.39898245  0.68958707    -0.23100
C1371       C  0.29294674  0.39517849  0.69501222    -0.00100
H1372       H  0.53358371  0.39972066  0.71618683     0.13700
H1373       H  0.24693686  0.41320024  0.67170794     0.13700
C1374       C  0.33475669  0.30406926  0.74717895     0.81100
N1375       N  0.33663450  0.34462892  0.73740093    -0.77200
C1376       C  0.29588114  0.34233192  0.72808694     0.83600
N1377       N  0.58828925  0.29913455  0.72733649    -0.77100
C1378       C  0.58601133  0.59261413  0.73750790     0.83700
N1379       N  0.29230350  0.59627136  0.74825735    -0.78800
O1380       O  0.33751537  0.47268768  0.81853201    -0.80000
O1381       O  0.46115889  0.36649082  0.78371006    -0.64700
O1382       O  0.57907688  0.45329402  0.81718429    -1.11300
C1383       C  0.54009863  0.34079533  0.88185040     1.06900
O1384       O  0.42077074  0.33549531  0.82075136    -0.77900
O1385       O  0.47505284  0.40001840  0.86046171    -0.65500
Ni1386     Ni  0.63378881  0.48820973  0.79515007     1.34900
C1387       C  0.51233585  0.42920366  0.87334913     0.85600
O1388       O  0.52273514  0.45983747  0.77893021    -0.78400
O1389       O  0.59985574  0.50564059  0.76956336    -0.88700
C1390       C  0.42359224  0.33738026  0.79540071     0.85200
O1391       O  0.62539777  0.43589982  0.77135405    -0.66900
O1392       O  0.49907218  0.33503409  0.87767506    -0.86200
C1393       C  0.58724859  0.40365567  0.76051027     0.86000
C1394       C  0.55604170  0.49125902  0.76518573     1.07600
H1395       H  0.52023286  0.33825364  0.81383258     0.39400
O1396       O  0.51845741  0.36401057  0.82382820    -1.08800
O1397       O  0.55221448  0.43184379  0.86852505    -0.65500
Ni1398     Ni  0.57782093  0.40649500  0.84108802     1.26300
O1399       O  0.54663510  0.39053773  0.77071982    -0.65700
O1400       O  0.57333101  0.35930377  0.86498284    -0.78000
C1401       C  0.33855081  0.47974281  0.84382358     0.85400
O1402       O  0.63742720  0.45051410  0.85748485    -0.65200
Ni1403     Ni  0.46435533  0.33816401  0.84748728     1.27400
Ni1404     Ni  0.52028355  0.41111102  0.80034732     1.26100
H1405       H  0.57508074  0.47743760  0.82750143     0.40000
N1406       N  0.49583533  0.44258679  0.56549415    -0.02600
C1407       C  0.50457776  0.48649648  0.57605542     0.00000
C1408       C  0.51733652  0.51890975  0.55578822    -0.22900
C1409       C  0.50385938  0.49127466  0.53235257    -0.23100
C1410       C  0.48208845  0.44345786  0.53981983    -0.00100
H1411       H  0.52431863  0.55582518  0.55780772     0.13700
H1412       H  0.49773457  0.50384712  0.51375603     0.13700
N1413       N  0.66822379  0.51285331  0.55962333    -0.02600
C1414       C  0.37365934  0.51259180  0.56940949     0.00000
C1415       C  0.40764801  0.52366812  0.55024859    -0.22900
C1416       C  0.38998282  0.53094499  0.52744340    -0.23100
C1417       C  0.34639138  0.52644395  0.53377209    -0.00100
H1418       H  0.44254784  0.52868259  0.55303512     0.13700
H1419       H  0.41024231  0.54595484  0.50949342     0.13700
N1420       N  0.58100611  0.35531093  0.58955206    -0.02600
C1421       C  0.61781645  0.34829527  0.58153120     0.00000
C1422       C  0.62962716  0.65937816  0.60077100    -0.22900
C1423       C  0.60030735  0.65303038  0.62175496    -0.23100
C1424       C  0.57107196  0.33754011  0.61445500    -0.00100
H1425       H  0.65610461  0.64798741  0.59938121     0.13700
H1426       H  0.59772398  0.63357635  0.63956550     0.13700
C1427       C  0.53798238  0.43722294  0.56724582     0.81100
N1428       N  0.53621754  0.39673437  0.57725571    -0.77200
C1429       C  0.57784447  0.39702260  0.58235192     0.83600
N1430       N  0.61892674  0.43796413  0.57980958    -0.77100
C1431       C  0.62192276  0.47634040  0.56783548     0.83700
N1432       N  0.58122210  0.47536813  0.56067147    -0.78800
O1433       O  0.33854420  0.42424152  0.65482098    -0.80000
O1434       O  0.48996127  0.62028966  0.61600448    -0.64700
O1435       O  0.43120285  0.50386316  0.65264891    -1.11300
C1436       C  0.39534338  0.59154632  0.71582511     1.06900
O1437       O  0.52782654  0.65925674  0.65335583    -0.77900
O1438       O  0.51142060  0.60227698  0.69408745    -0.65500
Ni1439     Ni  0.39605083  0.44295621  0.63389711     1.34900
C1440       C  0.48909977  0.56133684  0.70421578     0.85600
O1441       O  0.48504249  0.53441391  0.60571231    -0.78400
O1442       O  0.45086296  0.45497895  0.61248267    -0.88700
C1443       C  0.52619431  0.65289292  0.62798940     0.85200
O1444       O  0.37440401  0.46427784  0.60408147    -0.66900
O1445       O  0.43855232  0.62288146  0.71165679    -0.86200
C1446       C  0.38257312  0.50581365  0.59725732     0.86000
C1447       C  0.47962812  0.49238682  0.60002958     1.07600
H1448       H  0.41436941  0.59576699  0.65237125     0.39400
O1449       O  0.43545337  0.58602561  0.66005492    -1.08800
O1450       O  0.44461439  0.53956025  0.70504337    -0.65500
Ni1451     Ni  0.39998377  0.52693653  0.67715618     1.26300
O1452       O  0.40587825  0.54379317  0.61166596    -0.65700
O1453       O  0.37175145  0.55391319  0.70077491    -0.78000
C1454       C  0.33587513  0.42854928  0.68040242     0.85400
O1455       O  0.36526040  0.46625704  0.69328857    -0.65200
Ni1456     Ni  0.48192224  0.63837325  0.68165936     1.27400
Ni1457     Ni  0.46032207  0.56075769  0.63311268     1.26100
H1458       H  0.45666954  0.50240187  0.66153558     0.40000
N1459       N  0.55392647  0.56222184  0.40890354    -0.02600
C1460       C  0.54733781  0.51853476  0.39938874     0.00000
C1461       C  0.53360050  0.48691703  0.42014162    -0.22900
C1462       C  0.54489320  0.51543970  0.44322124    -0.23100
C1463       C  0.56581677  0.56281997  0.43511480    -0.00100
H1464       H  0.52794433  0.45041811  0.41902779     0.13700
H1465       H  0.55049307  0.50414133  0.46238870     0.13700
N1466       N  0.38133393  0.49219985  0.41290398    -0.02600
C1467       C  0.34507641  0.49531842  0.40142421     0.00000
C1468       C  0.64467351  0.48978633  0.41985869    -0.22900
C1469       C  0.65859036  0.48150322  0.44359481    -0.23100
C1470       C  0.36681815  0.48074180  0.43882291    -0.00100
H1471       H  0.61240835  0.48974059  0.41631650     0.13700
H1472       H  0.63696689  0.46998279  0.46140806     0.13700
N1473       N  0.47303187  0.65675165  0.39300101    -0.02600
C1474       C  0.43875287  0.66813583  0.40026304     0.00000
C1475       C  0.43895250  0.70203246  0.38369641    -0.22900
C1476       C  0.47342015  0.37806438  0.36533365    -0.23100
C1477       C  0.49324396  0.68328528  0.37145761    -0.00100
H1478       H  0.41665777  0.38527650  0.38498667     0.13700
H1479       H  0.48334886  0.40300418  0.34926873     0.13700
C1480       C  0.51166866  0.56691102  0.40576517     0.81100
N1481       N  0.46791448  0.52759884  0.40996849    -0.77200
C1482       C  0.42802545  0.53096718  0.40746594     0.83600
N1483       N  0.43210474  0.57372328  0.40182001    -0.77100
C1484       C  0.47400569  0.61358224  0.39939511     0.83700
N1485       N  0.51465756  0.61042755  0.40068423    -0.78800
O1486       O  0.32190748  0.55337063  0.49726331    -0.80000
O1487       O  0.35229825  0.40143884  0.44504375    -0.64700
O1488       O  0.37618022  0.64736021  0.48222002    -1.11300
C1489       C  0.64109404  0.35763457  0.55513044     1.06900
O1490       O  0.38622068  0.45589984  0.47828275    -0.77900
O1491       O  0.41029722  0.43708276  0.52535331    -0.65500
Ni1492     Ni  0.36185185  0.58622065  0.46742554     1.34900
C1493       C  0.43132798  0.41360671  0.53075735     0.85600
O1494       O  0.39020021  0.67989375  0.43070967    -0.78400
O1495       O  0.40197663  0.61701019  0.43726700    -0.88700
C1496       C  0.37145554  0.44485226  0.45410531     0.85200
O1497       O  0.63939972  0.57246186  0.44812844    -0.66900
O1498       O  0.65021876  0.39546308  0.54259351    -0.86200
C1499       C  0.61562980  0.59391483  0.44485255     0.86000
C1500       C  0.40831165  0.65332302  0.42414442     1.07600
H1501       H  0.63401535  0.67894717  0.49297703     0.39400
O1502       O  0.33458314  0.36149419  0.49537343    -1.08800
O1503       O  0.41097293  0.36764448  0.52823139    -0.65500
Ni1504     Ni  0.34784978  0.65263670  0.51484323     1.26300
O1505       O  0.63250100  0.63890165  0.45020609    -0.65700
O1506       O  0.65261881  0.65988132  0.54670369    -0.78000
C1507       C  0.33764792  0.56199015  0.52119454     0.85400
O1508       O  0.35632500  0.60459524  0.53154113    -0.65200
Ni1509     Ni  0.35141376  0.42354424  0.51001587     1.27400
Ni1510     Ni  0.36205975  0.35497502  0.46256196     1.26100
H1511       H  0.41005755  0.66416195  0.48482763     0.40000
N1512       N  0.64617592  0.67889599  0.22360082    -0.02600
C1513       C  0.64442305  0.72039879  0.22873123     0.00000
C1514       C  0.63508300  0.73618728  0.20550195    -0.22900
C1515       C  0.62680356  0.70122141  0.18599314    -0.23100
C1516       C  0.63055045  0.66460179  0.19801753    -0.00100
H1517       H  0.62659341  0.76495855  0.20396662     0.13700
H1518       H  0.61022564  0.69830370  0.16678393     0.13700
N1519       N  0.47862965  0.42674154  0.24751358    -0.02600
C1520       C  0.48368794  0.47094683  0.24360109     0.00000
C1521       C  0.49006409  0.49611721  0.26769993    -0.22900
C1522       C  0.49308340  0.46791647  0.28676058    -0.23100
C1523       C  0.49035944  0.42740664  0.27341084    -0.00100
H1524       H  0.49926555  0.53359777  0.27059506     0.13700
H1525       H  0.50553472  0.48038926  0.30708687     0.13700
N1526       N  0.39296750  0.58702177  0.23962120    -0.02600
C1527       C  0.39281966  0.56796479  0.26362150     0.00000
C1528       C  0.40156729  0.52999674  0.25874765    -0.22900
C1529       C  0.40248602  0.52326545  0.23144561    -0.23100
C1530       C  0.39965110  0.56032361  0.21984217    -0.00100
H1531       H  0.39998935  0.50494889  0.27329107     0.13700
H1532       H  0.40660923  0.49500810  0.22113976     0.13700
C1533       C  0.35417143  0.67654517  0.23164284     0.81100
N1534       N  0.39640181  0.38463945  0.23408998    -0.77200
C1535       C  0.43748280  0.38373611  0.23768477     0.83600
N1536       N  0.43582061  0.67375457  0.23924206    -0.77100
C1537       C  0.39407956  0.63205714  0.23650250     0.83700
N1538       N  0.35328898  0.63342409  0.23243752    -0.78800
O1539       O  0.60202163  0.53914623  0.14032465    -0.80000
O1540       O  0.47019757  0.59574194  0.19758769    -0.64700
O1541       O  0.51307518  0.52039001  0.15904850    -1.11300
C1542       C  0.50430170  0.61018711  0.08842705     1.06900
O1543       O  0.40739069  0.56789785  0.17152577    -0.77900
O1544       O  0.40292923  0.52105449  0.12348569    -0.65500
Ni1545     Ni  0.56536670  0.51535318  0.17231300     1.34900
C1546       C  0.41596305  0.49066677  0.11598908     0.85600
O1547       O  0.48936081  0.52711206  0.21247206    -0.78400
O1548       O  0.53023581  0.48787982  0.20443606    -0.88700
C1549       C  0.42649616  0.57923043  0.19502842     0.85200
O1550       O  0.60261972  0.57966191  0.18889992    -0.66900
O1551       O  0.46953478  0.61045471  0.10131053    -0.86200
C1552       C  0.59374112  0.61446272  0.19117310     0.86000
C1553       C  0.50157365  0.49626158  0.21843242     1.07600
H1554       H  0.51903557  0.62013904  0.14848077     0.39400
O1555       O  0.49467085  0.58672944  0.14725802    -1.08800
O1556       O  0.45933238  0.50124416  0.11477062    -0.65500
Ni1557     Ni  0.51962430  0.55313507  0.12686601     1.26300
O1558       O  0.55298952  0.60901520  0.18756776    -0.65700
O1559       O  0.52586519  0.58823248  0.09589744    -0.78000
C1560       C  0.58926456  0.52976929  0.11574196     0.85400
O1561       O  0.54844113  0.52063088  0.10814094    -0.65200
Ni1562     Ni  0.43915623  0.58772171  0.13627532     1.27400
Ni1563     Ni  0.49203293  0.55746816  0.17965462     1.26100
H1564       H  0.48692858  0.48794505  0.15715693     0.40000
O1565       O  0.52297362  0.66967193  0.33199488    -0.80000
O1566       O  0.64907541  0.52756639  0.27587741    -0.64700
O1567       O  0.60777316  0.41399978  0.31387818    -1.11300
C1568       C  0.57355154  0.51232971  0.37603308     1.06900
O1569       O  0.36517733  0.56801512  0.30922422    -0.77900
O1570       O  0.34531982  0.54295057  0.36552178    -0.65500
Ni1571     Ni  0.56024769  0.68589431  0.29974054     1.34900
C1572       C  0.67284893  0.50253208  0.37284478     0.85600
O1573       O  0.64655602  0.44173711  0.26333010    -0.78400
O1574       O  0.59405059  0.69612200  0.26617034    -0.88700
C1575       C  0.35639774  0.55867750  0.28383584     0.85200
O1576       O  0.51868426  0.37562756  0.28807249    -0.66900
O1577       O  0.59987307  0.54879600  0.36185820    -0.86200
C1578       C  0.52789664  0.41614989  0.27939278     0.86000
C1579       C  0.62832331  0.39794519  0.25466685     1.07600
H1580       H  0.57918556  0.49414030  0.31734548     0.39400
O1581       O  0.60772662  0.49393408  0.32222512    -1.08800
O1582       O  0.65215734  0.46520581  0.35787087    -0.65500
Ni1583     Ni  0.59019231  0.44140011  0.34354037     1.26300
O1584       O  0.56938385  0.44984431  0.27581403    -0.65700
O1585       O  0.57089532  0.47075145  0.37235158    -0.78000
C1586       C  0.53224943  0.35265474  0.35612369     0.85400
O1587       O  0.57241183  0.38607624  0.36302313    -0.65200
Ni1588     Ni  0.64906133  0.55732686  0.33609297     1.27400
Ni1589     Ni  0.62790480  0.46907632  0.29300918     1.26100
H1590       H  0.63509653  0.41098777  0.31838184     0.40000
N1591       N  0.35466008  0.75355813  0.08778613    -0.02600
C1592       C  0.38077138  0.77211933  0.11083414     0.00000
C1593       C  0.39415491  0.73956289  0.11952834    -0.22900
C1594       C  0.38075901  0.70353818  0.10014787    -0.23100
C1595       C  0.35714804  0.71335003  0.08089112    -0.00100
H1596       H  0.41884258  0.74592752  0.13563686     0.13700
H1597       H  0.39189068  0.67657663  0.09881521     0.13700
N1598       N  0.61791907  0.85288822  0.06998966    -0.02600
C1599       C  0.65785285  0.88607287  0.05766237     0.00000
C1600       C  0.69367867  0.91179669  0.07663675    -0.22900
C1601       C  0.67249892  0.90349902  0.10093215    -0.23100
C1602       C  0.62571184  0.87096617  0.09582553    -0.00100
H1603       H  0.72858130  0.94166883  0.07311062     0.13700
H1604       H  0.68806706  0.92356072  0.11955213     0.13700
N1605       N  0.52689856  0.67635430  0.05508408    -0.02600
C1606       C  0.52326177  0.67302942  0.02780104     0.00000
C1607       C  0.52156052  0.96416134  0.01798047    -0.22900
C1608       C  0.51717801  0.93746768  0.03958524    -0.23100
C1609       C  0.51813609  0.96496498  0.06185764    -0.00100
H1610       H  0.51351549  0.94956254  0.99753418     0.13700
H1611       H  0.50888117  0.90010621  0.03898675     0.13700
C1612       C  0.56597792  0.71964433  0.06729608     0.81100
N1613       N  0.57035832  0.76426158  0.06386380    -0.77200
C1614       C  0.61290571  0.80503664  0.06882143     0.83600
N1615       N  0.65092901  0.80079265  0.07652393    -0.77100
C1616       C  0.64704324  0.75750712  0.08053713     0.83700
N1617       N  0.60434965  0.71718836  0.07623852    -0.78800
N1618       N  0.54344024  0.95591901  0.91755765    -0.02600
C1619       C  0.55849343  0.96471949  0.94372166     0.00000
C1620       C  0.56861091  0.67778382  0.95159268    -0.22900
C1621       C  0.56493296  0.69947507  0.92938588    -0.23100
C1622       C  0.55056415  0.66526401  0.90880771    -0.00100
H1623       H  0.58529203  0.69679867  0.97028664     0.13700
H1624       H  0.57355351  0.73660378  0.92822896     0.13700
N1625       N  0.46672217  0.78211255  0.90728648    -0.02600
C1626       C  0.50876862  0.78882712  0.89747054     0.00000
C1627       C  0.54148011  0.80206494  0.91808276    -0.22900
C1628       C  0.51576884  0.79265594  0.94126376    -0.23100
C1629       C  0.46845658  0.77131660  0.93324599    -0.00100
H1630       H  0.57718482  0.80780657  0.91650438     0.13700
H1631       H  0.52846755  0.78779890  0.96023243     0.13700
C1632       C  0.46361691  0.82556447  0.90482317     0.81100
N1633       N  0.50157033  0.86838544  0.91323539    -0.77200
C1634       C  0.50503887  0.91069586  0.90710903     0.83600
N1635       N  0.46831412  0.90996893  0.89403857    -0.77100
C1636       C  0.42764257  0.86834099  0.88833281     0.83700
N1637       N  0.42562590  0.82530800  0.89292642    -0.78800
N1638       N  0.38640935  0.87179095  0.88096315    -0.02600
C1639       C  0.36694239  0.86173889  0.85576885     0.00000
C1640       C  0.34949742  0.89254059  0.85054147    -0.22900
C1641       C  0.35668408  0.92122600  0.87288805    -0.23100
C1642       C  0.37896874  0.90788611  0.89126197    -0.00100
H1643       H  0.66029889  0.88941758  0.83388326     0.13700
H1644       H  0.34464635  0.94737689  0.87591776     0.13700
O1645       O  0.58725668  0.93124937  0.97606245    -0.80000
O1646       O  0.45300838  0.67631321  0.02631683    -0.64700
O1647       O  0.34423913  0.66566228  0.99298338    -1.11300
C1648       C  0.38855560  0.92932716  0.91887559     1.06900
O1649       O  0.49505317  0.69247412  0.98930443    -0.77900
O1650       O  0.46206214  0.69688712  0.94138896    -0.65500
Ni1651     Ni  0.61740078  0.63161440  0.00991656     1.34900
C1652       C  0.44002526  0.72080771  0.94164432     0.85600
O1653       O  0.39019118  0.70467128  0.04043849    -0.78400
O1654       O  0.64364734  0.66583355  0.04398285    -0.88700
C1655       C  0.49051190  0.68445754  0.01416709     0.85200
O1656       O  0.62207512  0.91067179  0.02320868    -0.66900
O1657       O  0.42281991  0.93286580  0.93283827    -0.82600
C1658       C  0.65899739  0.91422778  0.03427820     0.86000
C1659       C  0.35202224  0.69395038  0.05326276     1.07600
H1660       H  0.38563382  0.93320950  0.98409873     0.39400
O1661       O  0.39975434  0.96645072  0.97925696    -1.08800
O1662       O  0.39708578  0.70353767  0.94930441    -0.65500
Ni1663     Ni  0.35263337  0.97172472  0.96010124     1.26300
O1664       O  0.36660429  0.94763579  0.02920082    -0.65700
O1665       O  0.36161650  0.94561015  0.92703456    -0.78000
C1666       C  0.59397617  0.95303390  0.95402525     0.85400
O1667       O  0.63513457  0.97489209  0.94391917    -0.65200
Ni1668     Ni  0.45689552  0.97887920  0.96177791     1.27400
Ni1669     Ni  0.39796808  0.67102026  0.00999106     1.26100
H1670       H  0.34959051  0.69778331  0.99012042     0.40000
N1671       N  0.54608578  0.87872277  0.73173371    -0.02600
C1672       C  0.51109825  0.86638604  0.71307048     0.00000
C1673       C  0.48510865  0.81679076  0.70945780    -0.22900
C1674       C  0.50257304  0.79774751  0.72665378    -0.23100
C1675       C  0.53968848  0.83562253  0.74028137    -0.00100
H1676       H  0.45255899  0.79597320  0.69820173     0.13700
H1677       H  0.48580444  0.76001154  0.73115039     0.13700
N1678       N  0.37674946  0.96757162  0.75319524    -0.02600
C1679       C  0.38475413  0.63142302  0.77967432     0.00000
C1680       C  0.37850040  0.91956483  0.78479827    -0.22900
C1681       C  0.37308539  0.89592270  0.76072706    -0.23100
C1682       C  0.37545322  0.92716704  0.74187171    -0.00100
H1683       H  0.38964762  0.57642766  0.80267762     0.13700
H1684       H  0.37659948  0.86400240  0.75718859     0.13700
N1685       N  0.62669457  0.71827083  0.72147496    -0.02600
C1686       C  0.58921197  0.72082902  0.73248176     0.00000
C1687       C  0.56282327  0.72646357  0.71304216    -0.22900
C1688       C  0.25334422  0.73231129  0.68958621    -0.23100
C1689       C  0.29294950  0.72850833  0.69501252    -0.00100
H1690       H  0.53358424  0.73305612  0.71618818     0.13700
H1691       H  0.24694042  0.74652859  0.67170658     0.13700
C1692       C  0.33475675  0.63740005  0.74718138     0.81100
N1693       N  0.33663503  0.67796013  0.73740365    -0.77200
C1694       C  0.29588223  0.67566343  0.72808884     0.83600
N1695       N  0.58828872  0.63246663  0.72733620    -0.77100
C1696       C  0.58601153  0.92594939  0.73750894     0.83700
N1697       N  0.29230384  0.92960929  0.74825770    -0.78800
O1698       O  0.33751570  0.80602005  0.81853010    -0.80000
O1699       O  0.46115997  0.69982227  0.78371158    -0.64700
O1700       O  0.57907746  0.78662604  0.81718610    -1.11300
C1701       C  0.54009912  0.67412696  0.88185161     1.06900
O1702       O  0.42077194  0.66882881  0.82075310    -0.77900
O1703       O  0.47505449  0.73335044  0.86046420    -0.65500
Ni1704     Ni  0.63378935  0.82154422  0.79515221     1.34900
C1705       C  0.51233763  0.76253535  0.87335171     0.85600
O1706       O  0.52273586  0.79316977  0.77893242    -0.78400
O1707       O  0.59985647  0.83897859  0.76956721    -0.88700
C1708       C  0.42359337  0.67071197  0.79540244     0.85200
O1709       O  0.62539842  0.76923795  0.77135307    -0.66900
O1710       O  0.49907263  0.66836526  0.87767609    -0.86200
C1711       C  0.58724916  0.73699050  0.76051092     0.86000
C1712       C  0.55604201  0.82459433  0.76518902     1.07600
H1713       H  0.52023362  0.67158557  0.81383417     0.39400
O1714       O  0.51845829  0.69734253  0.82382980    -1.08800
O1715       O  0.55221628  0.76517565  0.86852722    -0.65500
Ni1716     Ni  0.57782193  0.73982669  0.84108955     1.26300
O1717       O  0.54663615  0.72386997  0.77072172    -0.65700
O1718       O  0.57333174  0.69263525  0.86498418    -0.78000
C1719       C  0.33855241  0.81307465  0.84382174     0.85400
O1720       O  0.63742892  0.78384499  0.85748599    -0.65200
Ni1721     Ni  0.46435615  0.67149614  0.84748875     1.27400
Ni1722     Ni  0.52028442  0.74444304  0.80034908     1.26100
H1723       H  0.57508047  0.81076910  0.82750364     0.40000
N1724       N  0.49583303  0.77591577  0.56549401    -0.02600
C1725       C  0.50457618  0.81982566  0.57605513     0.00000
C1726       C  0.51733472  0.85223903  0.55578799    -0.22900
C1727       C  0.50385799  0.82460410  0.53235234    -0.23100
C1728       C  0.48208655  0.77678736  0.53981974    -0.00100
H1729       H  0.52431704  0.88915452  0.55780749     0.13700
H1730       H  0.49773332  0.83717658  0.51375576     0.13700
N1731       N  0.66822068  0.84618661  0.55962506    -0.02600
C1732       C  0.37365979  0.84592369  0.56941096     0.00000
C1733       C  0.40764768  0.85699783  0.55024988    -0.22900
C1734       C  0.38998403  0.86427742  0.52744503    -0.23100
C1735       C  0.34639420  0.85977999  0.53377400    -0.00100
H1736       H  0.44254619  0.86200887  0.55303612     0.13700
H1737       H  0.41024368  0.87928589  0.50949491     0.13700
N1738       N  0.58100587  0.68864237  0.58955254    -0.02600
C1739       C  0.61781640  0.68162690  0.58153199     0.00000
C1740       C  0.62963124  0.99271662  0.60077268    -0.22900
C1741       C  0.60031127  0.98636893  0.62175653    -0.23100
C1742       C  0.57106770  0.67086696  0.61445436    -0.00100
H1743       H  0.65611001  0.98132759  0.59938348     0.13700
H1744       H  0.59772903  0.96691651  0.63956758     0.13700
C1745       C  0.53797988  0.77055199  0.56724560     0.81100
N1746       N  0.53621569  0.73006408  0.57725608    -0.77200
C1747       C  0.57784309  0.73035324  0.58235221     0.83600
N1748       N  0.61892490  0.77129497  0.57980936    -0.77100
C1749       C  0.62191999  0.80967131  0.56783585     0.83700
N1750       N  0.58121913  0.80869757  0.56067128    -0.78800
O1751       O  0.33854742  0.75757155  0.65482189    -0.80000
O1752       O  0.48996327  0.95361921  0.61600406    -0.64700
O1753       O  0.43120627  0.83719392  0.65265040    -1.11300
C1754       C  0.39534271  0.92488032  0.71582309     1.06900
O1755       O  0.52782647  0.99258950  0.65335539    -0.77900
O1756       O  0.51142125  0.93560992  0.69408722    -0.65500
Ni1757     Ni  0.39605382  0.77628680  0.63389811     1.34900
C1758       C  0.48910013  0.89467064  0.70421664     0.85600
O1759       O  0.48504363  0.86774354  0.60571280    -0.78400
O1760       O  0.45086505  0.78830894  0.61248360    -0.88700
C1761       C  0.52619504  0.98622469  0.62798913     0.85200
O1762       O  0.37440615  0.79760830  0.60408226    -0.66900
O1763       O  0.43855206  0.95621459  0.71165539    -0.86200
C1764       C  0.38257380  0.83914398  0.59725863     0.86000
C1765       C  0.47962896  0.82571649  0.60003002     1.07600
H1766       H  0.41437100  0.92909713  0.65237043     0.39400
O1767       O  0.43545497  0.91935647  0.66005450    -1.08800
O1768       O  0.44461479  0.87289486  0.70504438    -0.65500
Ni1769     Ni  0.39998561  0.86026804  0.67715624     1.26300
O1770       O  0.40587916  0.87712295  0.61166742    -0.65700
O1771       O  0.37175149  0.88724600  0.70077337    -0.78000
C1772       C  0.33587785  0.76188004  0.68040317     0.85400
O1773       O  0.36526158  0.79958904  0.69328917    -0.65200
Ni1774     Ni  0.48192238  0.97170557  0.68165851     1.27400
Ni1775     Ni  0.46032444  0.89408791  0.63311322     1.26100
H1776       H  0.45668147  0.83573280  0.66154020     0.40000
N1777       N  0.55392807  0.89555643  0.40890359    -0.02600
C1778       C  0.54733878  0.85186901  0.39938888     0.00000
C1779       C  0.53360207  0.82025149  0.42014182    -0.22900
C1780       C  0.54489578  0.84877439  0.44322129    -0.23100
C1781       C  0.56581917  0.89615448  0.43511468    -0.00100
H1782       H  0.52794585  0.78375254  0.41902799     0.13700
H1783       H  0.55049637  0.83747619  0.46238864     0.13700
N1784       N  0.38133517  0.82553390  0.41290362    -0.02600
C1785       C  0.34507706  0.82865092  0.40142320     0.00000
C1786       C  0.64467579  0.82312009  0.41985837    -0.22900
C1787       C  0.65859358  0.81483852  0.44359462    -0.23100
C1788       C  0.36681810  0.81407434  0.43882237    -0.00100
H1789       H  0.61241094  0.82307531  0.41631650     0.13700
H1790       H  0.63697103  0.80331995  0.46140829     0.13700
N1791       N  0.47303229  0.99008555  0.39299938    -0.02600
C1792       C  0.43875239  0.00146895  0.40026104     0.00000
C1793       C  0.43894898  0.03536223  0.38369294    -0.22900
C1794       C  0.47341939  0.71139874  0.36533575    -0.23100
C1795       C  0.49324192  0.01661687  0.37145477    -0.00100
H1796       H  0.41665600  0.71860939  0.38498856     0.13700
H1797       H  0.48334817  0.73633907  0.34927111     0.13700
C1798       C  0.51167024  0.90024598  0.40576572     0.81100
N1799       N  0.46791613  0.86093395  0.40996944    -0.77200
C1800       C  0.42802685  0.86430161  0.40746597     0.83600
N1801       N  0.43210588  0.90705724  0.40181906    -0.77100
C1802       C  0.47400675  0.94691651  0.39939415     0.83700
N1803       N  0.51465891  0.94376221  0.40068383    -0.78800
O1804       O  0.32191275  0.88670562  0.49726366    -0.80000
O1805       O  0.35229957  0.73477234  0.44504441    -0.64700
O1806       O  0.37618222  0.98069613  0.48221950    -1.11300
C1807       C  0.64109538  0.69096798  0.55513159     1.06900
O1808       O  0.38621977  0.78923411  0.47828328    -0.77900
O1809       O  0.41029723  0.77041485  0.52535271    -0.65500
Ni1810     Ni  0.36185484  0.91955659  0.46742525     1.34900
C1811       C  0.43132621  0.74693756  0.53075769     0.85600
O1812       O  0.39020326  0.01323092  0.43070906    -0.78400
O1813       O  0.40197702  0.95034540  0.43726569    -0.88700
C1814       C  0.37145654  0.77818595  0.45410549     0.85200
O1815       O  0.63940173  0.90579608  0.44812882    -0.66900
O1816       O  0.65022267  0.72879816  0.54259551    -0.86200
C1817       C  0.61563218  0.92724928  0.44485223     0.86000
C1818       C  0.40831280  0.98665854  0.42414323     1.07600
H1819       H  0.63401408  0.01227951  0.49297661     0.39400
O1820       O  0.33458196  0.69482735  0.49537436    -1.08800
O1821       O  0.41096952  0.70097520  0.52823318    -0.65500
Ni1822     Ni  0.34785177  0.98597242  0.51484287     1.26300
O1823       O  0.63250331  0.97223611  0.45020544    -0.65700
O1824       O  0.65261821  0.99321393  0.54670407    -0.78000
C1825       C  0.33765208  0.89532636  0.52119518     0.85400
O1826       O  0.35632831  0.93793182  0.53154120    -0.65200
Ni1827     Ni  0.35141378  0.75687785  0.51001676     1.27400
Ni1828     Ni  0.36205951  0.68830823  0.46256322     1.26100
H1829       H  0.41005910  0.99749803  0.48482699     0.40000
N1830       N  0.64617603  0.01223088  0.22359968    -0.02600
C1831       C  0.64442462  0.05373455  0.22872945     0.00000
C1832       C  0.63508700  0.06952366  0.20549959    -0.22900
C1833       C  0.62680826  0.03455751  0.18599096    -0.23100
C1834       C  0.63055280  0.99793719  0.19801617    -0.00100
H1835       H  0.62659891  0.09829586  0.20396351     0.13700
H1836       H  0.61023249  0.03164041  0.16678112     0.13700
N1837       N  0.47862881  0.76007201  0.24751272    -0.02600
C1838       C  0.48368674  0.80427749  0.24360022     0.00000
C1839       C  0.49006147  0.82944715  0.26769920    -0.22900
C1840       C  0.49308108  0.80124670  0.28675985    -0.23100
C1841       C  0.49035797  0.76073733  0.27341012    -0.00100
H1842       H  0.49926256  0.86692758  0.27059447     0.13700
H1843       H  0.50553210  0.81371953  0.30708620     0.13700
N1844       N  0.39296720  0.92035594  0.23962067    -0.02600
C1845       C  0.39282023  0.90129999  0.26362119     0.00000
C1846       C  0.40156868  0.86333245  0.25874779    -0.22900
C1847       C  0.40248706  0.85660021  0.23144585    -0.23100
C1848       C  0.39965144  0.89365763  0.21984197    -0.00100
H1849       H  0.39999140  0.83828532  0.27329150     0.13700
H1850       H  0.40661141  0.82834327  0.22114038     0.13700
C1851       C  0.35417212  0.00988018  0.23164240     0.81100
N1852       N  0.39640023  0.71796897  0.23409113    -0.77200
C1853       C  0.43748139  0.71706583  0.23768493     0.83600
N1854       N  0.43582126  0.00708876  0.23924011    -0.77100
C1855       C  0.39407969  0.96539150  0.23650169     0.83700
N1856       N  0.35328904  0.96675891  0.23243780    -0.78800
O1857       O  0.60202465  0.87248164  0.14032460    -0.80000
O1858       O  0.47019863  0.92907597  0.19758801    -0.64700
O1859       O  0.51307804  0.85372565  0.15904857    -1.11300
C1860       C  0.50430401  0.94352359  0.08842745     1.06900
O1861       O  0.40739205  0.90123084  0.17152552    -0.77900
O1862       O  0.40293163  0.85439048  0.12348369    -0.65500
Ni1863     Ni  0.56536930  0.84868840  0.17231300     1.34900
C1864       C  0.41596543  0.82400227  0.11598808     0.85600
O1865       O  0.48936380  0.86044695  0.21247239    -0.78400
O1866       O  0.53023755  0.82121363  0.20443580    -0.88700
C1867       C  0.42649710  0.91256404  0.19502832     0.85200
O1868       O  0.60262145  0.91299722  0.18889997    -0.66900
O1869       O  0.46953769  0.94379198  0.10131114    -0.86200
C1870       C  0.59374332  0.94779845  0.19117212     0.86000
C1871       C  0.50157486  0.82959466  0.21843212     1.07600
H1872       H  0.51903819  0.95347563  0.14848087     0.39400
O1873       O  0.49467270  0.92006446  0.14725815    -1.08800
O1874       O  0.45933474  0.83457905  0.11477118    -0.65500
Ni1875     Ni  0.51962666  0.88647059  0.12686612     1.26300
O1876       O  0.55299183  0.94235121  0.18756705    -0.65700
O1877       O  0.52586664  0.92156777  0.09589746    -0.78000
C1878       C  0.58926699  0.86310333  0.11574197     0.85400
O1879       O  0.54844407  0.85396685  0.10814095    -0.65200
Ni1880     Ni  0.43915818  0.92105674  0.13627534     1.27400
Ni1881     Ni  0.49203531  0.89080326  0.17965481     1.26100
H1882       H  0.48692983  0.82127869  0.15715694     0.40000
O1883       O  0.52297292  0.00300771  0.33199152    -0.80000
O1884       O  0.64907241  0.86089700  0.27587712    -0.64700
O1885       O  0.60777082  0.74733138  0.31387877    -1.11300
C1886       C  0.57355193  0.84566333  0.37603323     1.06900
O1887       O  0.36517749  0.90134952  0.30922369    -0.77900
O1888       O  0.34532015  0.87628376  0.36552100    -0.65500
Ni1889     Ni  0.56024911  0.01923010  0.29973807     1.34900
C1890       C  0.67284928  0.83586427  0.37284412     0.85600
O1891       O  0.64655359  0.77506799  0.26333114    -0.78400
O1892       O  0.59405389  0.02945804  0.26616884    -0.88700
C1893       C  0.35639800  0.89201157  0.28383535     0.85200
O1894       O  0.51868200  0.70895854  0.28807306    -0.66900
O1895       O  0.59987278  0.88212906  0.36185790    -0.86200
C1896       C  0.52789468  0.74948052  0.27939270     0.86000
C1897       C  0.62832116  0.73127604  0.25466821     1.07600
H1898       H  0.57918168  0.82747193  0.31734525     0.39400
O1899       O  0.60772440  0.82726589  0.32222513    -1.08800
O1900       O  0.65215709  0.79853818  0.35787018    -0.65500
Ni1901     Ni  0.59019112  0.77473262  0.34354083     1.26300
O1902       O  0.56938185  0.78317484  0.27581404    -0.65700
O1903       O  0.57089589  0.80408510  0.37235215    -0.78000
C1904       C  0.53224795  0.68598809  0.35612504     0.85400
O1905       O  0.57241088  0.71940927  0.36302398    -0.65200
Ni1906     Ni  0.64906018  0.89065877  0.33609255     1.27400
Ni1907     Ni  0.62790234  0.80240756  0.29300955     1.26100
H1908       H  0.63509456  0.74431928  0.31838230     0.40000
N1909       N  0.68799657  0.08689606  0.08778441    -0.02600
C1910       C  0.71410638  0.10545658  0.11083297     0.00000
C1911       C  0.72748961  0.07290002  0.11952733    -0.22900
C1912       C  0.71409511  0.03687595  0.10014652    -0.23100
C1913       C  0.69048527  0.04668836  0.08088936    -0.00100
H1914       H  0.75217606  0.07926415  0.13563644     0.13700
H1915       H  0.72522620  0.00991387  0.09881415     0.13700
N1916       N  0.95125231  0.18622283  0.06998910    -0.02600
C1917       C  0.99118577  0.21940722  0.05766167     0.00000
C1918       C  0.02701110  0.24513331  0.07663597    -0.22900
C1919       C  0.00583101  0.23683693  0.10093116    -0.23100
C1920       C  0.95904465  0.20430197  0.09582464    -0.00100
H1921       H  0.06191343  0.27500581  0.07310961     0.13700
H1922       H  0.02139839  0.25689984  0.11955095     0.13700
N1923       N  0.86023335  0.00968929  0.05508513    -0.02600
C1924       C  0.85659844  0.00636539  0.02780201     0.00000
C1925       C  0.85488735  0.29749066  0.01797809    -0.22900
C1926       C  0.85050470  0.27079721  0.03958310    -0.23100
C1927       C  0.85146820  0.29829705  0.06185551    -0.00100
H1928       H  0.84683931  0.28289090  0.99753207     0.13700
H1929       H  0.84220479  0.23343481  0.03898498     0.13700
C1930       C  0.89931189  0.05297923  0.06729762     0.81100
N1931       N  0.90369135  0.09759611  0.06386560    -0.77200
C1932       C  0.94623914  0.13837148  0.06882152     0.83600
N1933       N  0.98426337  0.13412827  0.07652290    -0.77100
C1934       C  0.98037830  0.09084312  0.08053634     0.83700
N1935       N  0.93768459  0.05052403  0.07623905    -0.78800
N1936       N  0.87677350  0.28925193  0.91755759    -0.02600
C1937       C  0.89182501  0.29805135  0.94372188     0.00000
C1938       C  0.90194835  0.01111745  0.95159198    -0.22900
C1939       C  0.89826918  0.03280859  0.92938540    -0.23100
C1940       C  0.88389950  0.99859747  0.90880716    -0.00100
H1941       H  0.91863018  0.03013227  0.97028582     0.13700
H1942       H  0.90688952  0.06993733  0.92822867     0.13700
N1943       N  0.80005630  0.11544542  0.90728511    -0.02600
C1944       C  0.84210262  0.12216078  0.89746846     0.00000
C1945       C  0.87481504  0.13539865  0.91808020    -0.22900
C1946       C  0.84910465  0.12598856  0.94126150    -0.23100
C1947       C  0.80179209  0.10464900  0.93324438    -0.00100
H1948       H  0.91051968  0.14114019  0.91650125     0.13700
H1949       H  0.86180420  0.12113094  0.96022973     0.13700
C1950       C  0.79695058  0.15889735  0.90482259     0.81100
N1951       N  0.83490440  0.20171839  0.91323440    -0.77200
C1952       C  0.83837249  0.24402888  0.90710853     0.83600
N1953       N  0.80164691  0.24330194  0.89403899    -0.77100
C1954       C  0.76097519  0.20167393  0.88833356     0.83700
N1955       N  0.75895886  0.15864091  0.89292676    -0.78800
N1956       N  0.71974192  0.20512376  0.88096371    -0.02600
C1957       C  0.70027558  0.19507226  0.85576922     0.00000
C1958       C  0.68282956  0.22587313  0.85054214    -0.22900
C1959       C  0.69001498  0.25455757  0.87288888    -0.23100
C1960       C  0.71230012  0.24121817  0.89126268    -0.00100
H1961       H  0.99362969  0.22274922  0.83388423     0.13700
H1962       H  0.67797649  0.28070783  0.87591864     0.13700
O1963       O  0.92058921  0.26458299  0.97606296    -0.80000
O1964       O  0.78634403  0.00964746  0.02631664    -0.64700
O1965       O  0.67757570  0.99899683  0.99298205    -1.11300
C1966       C  0.72188751  0.26266030  0.91887603     1.06900
O1967       O  0.82838930  0.02580690  0.98930443    -0.77900
O1968       O  0.79539880  0.03022042  0.94138902    -0.65500
Ni1969     Ni  0.95073735  0.96494993  0.00991527     1.34900
C1970       C  0.77336112  0.05414019  0.94164307     0.85600
O1971       O  0.72352821  0.03800793  0.04043697    -0.78400
O1972       O  0.97698379  0.99917126  0.04398103    -0.88700
C1973       C  0.82384774  0.01779147  0.01416724     0.85200
O1974       O  0.95540667  0.24400642  0.02320945    -0.66900
O1975       O  0.75615123  0.26619807  0.93283889    -0.82600
C1976       C  0.99232942  0.24756063  0.03427730     0.86000
C1977       C  0.68535937  0.02728806  0.05326110     1.07600
H1978       H  0.71896656  0.26654448  0.98409790     0.39400
O1979       O  0.73308686  0.29978561  0.97925656    -1.08800
O1980       O  0.73042129  0.03686968  0.94930246    -0.65500
Ni1981     Ni  0.68596565  0.30505930  0.96010140     1.26300
O1982       O  0.69993689  0.28096825  0.02919934    -0.65700
O1983       O  0.69494967  0.27894537  0.92703453    -0.78000
C1984       C  0.92730839  0.28636703  0.95402564     0.85400
O1985       O  0.96846662  0.30822532  0.94391938    -0.65200
Ni1986     Ni  0.79022765  0.31221378  0.96177730     1.27400
Ni1987     Ni  0.73130427  0.00435477  0.00999027     1.26100
H1988       H  0.68292747  0.03111806  0.99011861     0.40000
N1989       N  0.87941870  0.21205468  0.73173314    -0.02600
C1990       C  0.84442994  0.19971744  0.71307078     0.00000
C1991       C  0.81843884  0.15012210  0.70945925    -0.22900
C1992       C  0.83590335  0.13107932  0.72665547    -0.23100
C1993       C  0.87302043  0.16895477  0.74028173    -0.00100
H1994       H  0.78588867  0.12930478  0.69820358     0.13700
H1995       H  0.81913420  0.09334376  0.73115315     0.13700
N1996       N  0.71008275  0.30090346  0.75319634    -0.02600
C1997       C  0.71808722  0.96475990  0.77967296     0.00000
C1998       C  0.71183191  0.25289706  0.78480008    -0.22900
C1999       C  0.70641947  0.22925527  0.76072898    -0.23100
C2000       C  0.70878808  0.26049946  0.74187330    -0.00100
H2001       H  0.72297700  0.90976150  0.80267526     0.13700
H2002       H  0.70993456  0.19733544  0.75719105     0.13700
N2003       N  0.96002505  0.05160568  0.72147402    -0.02600
C2004       C  0.92254293  0.05416456  0.73248083     0.00000
C2005       C  0.89615538  0.05980103  0.71304130    -0.22900
C2006       C  0.58667606  0.06564851  0.68958590    -0.23100
C2007       C  0.62628068  0.06184415  0.69501198    -0.00100
H2008       H  0.86691681  0.06639425  0.71618732     0.13700
H2009       H  0.58027245  0.07986622  0.67170638     0.13700
C2010       C  0.66808981  0.97073803  0.74718125     0.81100
N2011       N  0.66996723  0.01129706  0.73740268    -0.77200
C2012       C  0.62921394  0.00899914  0.72808804     0.83600
N2013       N  0.92162018  0.96580185  0.72733670    -0.77100
C2014       C  0.91934578  0.25928087  0.73750725     0.83700
N2015       N  0.62563760  0.26294052  0.74825638    -0.78800
O2016       O  0.67085064  0.13935541  0.81852964    -0.80000
O2017       O  0.79449214  0.03316090  0.78371221    -0.64700
O2018       O  0.91241210  0.11996028  0.81718580    -1.11300
C2019       C  0.87343397  0.00746066  0.88185105     1.06900
O2020       O  0.75410491  0.00215745  0.82075269    -0.77900
O2021       O  0.80838792  0.06668321  0.86046245    -0.65500
Ni2022     Ni  0.96712304  0.15487678  0.79515106     1.34900
C2023       C  0.84567114  0.09586856  0.87334980     0.85600
O2024       O  0.85606933  0.12650886  0.77893527    -0.78400
O2025       O  0.93318912  0.17230862  0.76956541    -0.88700
C2026       C  0.75692623  0.00404689  0.79540226     0.85200
O2027       O  0.95873011  0.10256751  0.77135389    -0.66900
O2028       O  0.83240788  0.00170016  0.87767599    -0.86200
C2029       C  0.92058006  0.07032438  0.76051034     0.86000
C2030       C  0.88937494  0.15792858  0.76518945     1.07600
H2031       H  0.85356740  0.00492040  0.81383208     0.39400
O2032       O  0.85179215  0.03067641  0.82382856    -1.08800
O2033       O  0.88554975  0.09850843  0.86852573    -0.65500
Ni2034     Ni  0.91115601  0.07315986  0.84108847     1.26300
O2035       O  0.87996717  0.05720771  0.77072030    -0.65700
O2036       O  0.90666575  0.02596783  0.86498301    -0.78000
C2037       C  0.67188619  0.14640854  0.84382140     0.85400
O2038       O  0.97076285  0.11717782  0.85748510    -0.65200
Ni2039     Ni  0.79769074  0.00482873  0.84748823     1.27400
Ni2040     Ni  0.85361776  0.07777932  0.80034960     1.26100
H2041       H  0.90841686  0.14410438  0.82750381     0.40000
N2042       N  0.82916687  0.10924975  0.56549358    -0.02600
C2043       C  0.83791050  0.15315979  0.57605496     0.00000
C2044       C  0.85066944  0.18557341  0.55578787    -0.22900
C2045       C  0.83719207  0.15793874  0.53235213    -0.23100
C2046       C  0.81542035  0.11012194  0.53981937    -0.00100
H2047       H  0.85765267  0.22248920  0.55780752     0.13700
H2048       H  0.83106769  0.17051162  0.51375560     0.13700
N2049       N  0.00155413  0.17951851  0.55962348    -0.02600
C2050       C  0.70699522  0.17925901  0.56941075     0.00000
C2051       C  0.74098481  0.19033701  0.55025033    -0.22900
C2052       C  0.72332068  0.19761517  0.52744520    -0.23100
C2053       C  0.67972870  0.19311312  0.53377335    -0.00100
H2054       H  0.77588457  0.19535168  0.55303722     0.13700
H2055       H  0.74358091  0.21262589  0.50949555     0.13700
N2056       N  0.91433998  0.02197615  0.58955276    -0.02600
C2057       C  0.95115026  0.01496035  0.58153194     0.00000
C2058       C  0.96296628  0.32605293  0.60077227    -0.22900
C2059       C  0.93364813  0.31970754  0.62175678    -0.23100
C2060       C  0.90440140  0.00419957  0.61445427    -0.00100
H2061       H  0.98944635  0.31466563  0.59938345     0.13700
H2062       H  0.93106845  0.30025815  0.63956870     0.13700
C2063       C  0.87131333  0.10388497  0.56724484     0.81100
N2064       N  0.86954921  0.06339771  0.57725640    -0.77200
C2065       C  0.91117676  0.06368712  0.58235286     0.83600
N2066       N  0.95225843  0.10462880  0.57980966    -0.77100
C2067       C  0.95525341  0.14300378  0.56783459     0.83700
N2068       N  0.91455251  0.14202955  0.56066952    -0.78800
O2069       O  0.67188002  0.09090575  0.65482150    -0.80000
O2070       O  0.82329784  0.28695377  0.61600453    -0.64700
O2071       O  0.76453880  0.17052785  0.65265024    -1.11300
C2072       C  0.72867746  0.25821304  0.71582457     1.06900
O2073       O  0.86116117  0.32592245  0.65335601    -0.77900
O2074       O  0.84475475  0.26894175  0.69408753    -0.65500
Ni2075     Ni  0.72938666  0.10962101  0.63389776     1.34900
C2076       C  0.82243287  0.22800254  0.70421681     0.85600
O2077       O  0.81837805  0.20107802  0.60571299    -0.78400
O2078       O  0.78419824  0.12164321  0.61248323    -0.88700
C2079       C  0.85952970  0.31955881  0.62798962     0.85200
O2080       O  0.70773989  0.13094326  0.60408208    -0.66900
O2081       O  0.77188690  0.28954721  0.71165674    -0.86200
C2082       C  0.71590857  0.17247924  0.59725843     0.86000
C2083       C  0.81296286  0.15905079  0.60002987     1.07600
H2084       H  0.74770479  0.26243235  0.65237093     0.39400
O2085       O  0.76878888  0.25269072  0.66005509    -1.08800
O2086       O  0.77794762  0.20622747  0.70504450    -0.65500
Ni2087     Ni  0.73331859  0.19360197  0.67715648     1.26300
O2088       O  0.73921395  0.21045816  0.61166731    -0.65700
O2089       O  0.70508554  0.22057963  0.70077440    -0.78000
C2090       C  0.66920987  0.09521445  0.68040278     0.85400
O2091       O  0.69859439  0.13292267  0.69328900    -0.65200
Ni2092     Ni  0.81525700  0.30503858  0.68165945     1.27400
Ni2093     Ni  0.79365824  0.22742228  0.63311349     1.26100
H2094       H  0.79000829  0.16906598  0.66153874     0.40000
N2095       N  0.88726008  0.22888772  0.40890397    -0.02600
C2096       C  0.88067252  0.18520082  0.39938962     0.00000
C2097       C  0.86693565  0.15358346  0.42014274    -0.22900
C2098       C  0.87822665  0.18210631  0.44322218    -0.23100
C2099       C  0.89914987  0.22948617  0.43511528    -0.00100
H2100       H  0.86128102  0.11708510  0.41902934     0.13700
H2101       H  0.88382653  0.17080877  0.46238992     0.13700
N2102       N  0.71466774  0.15886481  0.41290319    -0.02600
C2103       C  0.67840966  0.16198196  0.40142310     0.00000
C2104       C  0.97801217  0.15645852  0.41985952    -0.22900
C2105       C  0.99193132  0.14817893  0.44359596    -0.23100
C2106       C  0.70015295  0.14740916  0.43882250    -0.00100
H2107       H  0.94574874  0.15641703  0.41631825     0.13700
H2108       H  0.97031067  0.13666429  0.46141051     0.13700
N2109       N  0.80636397  0.32341597  0.39299894    -0.02600
C2110       C  0.77208336  0.33479843  0.40026033     0.00000
C2111       C  0.77227940  0.36869135  0.38369214    -0.22900
C2112       C  0.80675304  0.04473229  0.36533550    -0.23100
C2113       C  0.82657354  0.34994756  0.37145449    -0.00100
H2114       H  0.74998908  0.05194180  0.38498822     0.13700
H2115       H  0.81668103  0.06967202  0.34927060     0.13700
C2116       C  0.84500224  0.23357669  0.40576517     0.81100
N2117       N  0.80124826  0.19426444  0.40996848    -0.77200
C2118       C  0.76135895  0.19763166  0.40746418     0.83600
N2119       N  0.76543777  0.24038710  0.40181698    -0.77100
C2120       C  0.80733850  0.28024677  0.39939310     0.83700
N2121       N  0.84799080  0.27709293  0.40068347    -0.78800
O2122       O  0.65524406  0.22003680  0.49726340    -0.80000
O2123       O  0.68563486  0.06810708  0.44504443    -0.64700
O2124       O  0.70951406  0.31402659  0.48221865    -1.11300
C2125       C  0.97442963  0.02430203  0.55513158     1.06900
O2126       O  0.71955191  0.12256847  0.47828384    -0.77900
O2127       O  0.74363072  0.10374899  0.52535225    -0.65500
Ni2128     Ni  0.69518629  0.25288682  0.46742475     1.34900
C2129       C  0.76466007  0.08027202  0.53075724     0.85600
O2130       O  0.72353323  0.34655937  0.43070792    -0.78400
O2131       O  0.73530901  0.28367523  0.43726525    -0.88700
C2132       C  0.70478988  0.11152034  0.45410592     0.85200
O2133       O  0.97273305  0.23912785  0.44812786    -0.66900
O2134       O  0.98355678  0.06213228  0.54259566    -0.86200
C2135       C  0.94896270  0.26058057  0.44485251     0.86000
C2136       C  0.74164377  0.31998772  0.42414245     1.07600
H2137       H  0.96734739  0.34561184  0.49297647     0.39400
O2138       O  0.66791579  0.02816076  0.49537414    -1.08800
O2139       O  0.74430368  0.03430967  0.52823301    -0.65500
Ni2140     Ni  0.68118451  0.31930397  0.51484211     1.26300
O2141       O  0.96583328  0.30556702  0.45020613    -0.65700
O2142       O  0.98595287  0.32654771  0.54670343    -0.78000
C2143       C  0.67098427  0.22865799  0.52119476     0.85400
O2144       O  0.68966083  0.27126360  0.53154054    -0.65200
Ni2145     Ni  0.68474645  0.09021104  0.51001689     1.27400
Ni2146     Ni  0.69539495  0.02164292  0.46256334     1.26100
H2147       H  0.74339134  0.33082852  0.48482597     0.40000
N2148       N  0.97951011  0.34556442  0.22359941    -0.02600
C2149       C  0.97775681  0.38706723  0.22872951     0.00000
C2150       C  0.96841626  0.40285457  0.20549989    -0.22900
C2151       C  0.96013924  0.36788918  0.18599111    -0.23100
C2152       C  0.96388659  0.33127008  0.19801589    -0.00100
H2153       H  0.95992568  0.43162508  0.20396406     0.13700
H2154       H  0.94356223  0.36497105  0.16678152     0.13700
N2155       N  0.81196174  0.09340545  0.24751168    -0.02600
C2156       C  0.81701965  0.13761095  0.24359904     0.00000
C2157       C  0.82339518  0.16278124  0.26769786    -0.22900
C2158       C  0.82641483  0.13458109  0.28675860    -0.23100
C2159       C  0.82369135  0.09407139  0.27340903    -0.00100
H2160       H  0.83259691  0.20026190  0.27059285     0.13700
H2161       H  0.83886687  0.14705455  0.30708473     0.13700
N2162       N  0.72630352  0.25369133  0.23962099    -0.02600
C2163       C  0.72615590  0.23463418  0.26362123     0.00000
C2164       C  0.73490421  0.19666666  0.25874727    -0.22900
C2165       C  0.73582394  0.18993629  0.23144523    -0.23100
C2166       C  0.73298883  0.22699444  0.21984193    -0.00100
H2167       H  0.73332575  0.17161829  0.27329048     0.13700
H2168       H  0.73994729  0.16167916  0.22113924     0.13700
C2169       C  0.68750696  0.34321423  0.23164163     0.81100
N2170       N  0.72973305  0.05130294  0.23409090    -0.77200
C2171       C  0.77081389  0.05039924  0.23768431     0.83600
N2172       N  0.76915598  0.34042383  0.23924225    -0.77100
C2173       C  0.72741512  0.29872646  0.23650251     0.83700
N2174       N  0.68662451  0.30009322  0.23243704    -0.78800
O2175       O  0.93535694  0.20581289  0.14032371    -0.80000
O2176       O  0.80353584  0.26241265  0.19758776    -0.64700
O2177       O  0.84641095  0.18705969  0.15904730    -1.11300
C2178       C  0.83763904  0.27685845  0.08842614     1.06900
O2179       O  0.74072935  0.23457082  0.17152561    -0.77900
O2180       O  0.73626677  0.18772687  0.12348499    -0.65500
Ni2181     Ni  0.89870128  0.18202047  0.17231188     1.34900
C2182       C  0.74930039  0.15733945  0.11598729     0.85600
O2183       O  0.82269758  0.19378103  0.21247137    -0.78400
O2184       O  0.86356920  0.15454576  0.20443441    -0.88700
C2185       C  0.75983457  0.24590222  0.19502838     0.85200
O2186       O  0.93595521  0.24632935  0.18889909    -0.66900
O2187       O  0.80287236  0.27712602  0.10130989    -0.86200
C2188       C  0.92707753  0.28113093  0.19117171     0.86000
C2189       C  0.83490748  0.16292779  0.21843090     1.07600
H2190       H  0.85237419  0.28681148  0.14848051     0.39400
O2191       O  0.82800858  0.25340088  0.14725756    -1.08800
O2192       O  0.79266971  0.16791678  0.11476870    -0.65500
Ni2193     Ni  0.85296161  0.21980645  0.12686518     1.26300
O2194       O  0.88632639  0.27568416  0.18756650    -0.65700
O2195       O  0.85920382  0.25490524  0.09589683    -0.78000
C2196       C  0.92259971  0.19643682  0.11574101     0.85400
O2197       O  0.88177734  0.18730156  0.10813991    -0.65200
Ni2198     Ni  0.77249448  0.25439395  0.13627491     1.27400
Ni2199     Ni  0.82536985  0.22413822  0.17965399     1.26100
H2200       H  0.82026281  0.15461413  0.15715533     0.40000
O2201       O  0.85630698  0.33633974  0.33199213    -0.80000
O2202       O  0.98240703  0.19423299  0.27587732    -0.64700
O2203       O  0.94110472  0.08066630  0.31387800    -1.11300
C2204       C  0.90688677  0.17899608  0.37603418     1.06900
O2205       O  0.69851331  0.23468286  0.30922399    -0.77900
O2206       O  0.67865519  0.20961590  0.36552104    -0.65500
Ni2207     Ni  0.89358268  0.35256334  0.29973877     1.34900
C2208       C  0.00618294  0.16919672  0.37284441     0.85600
O2209       O  0.97988542  0.10840359  0.26332977    -0.78400
O2210       O  0.92738624  0.36279145  0.26616913    -0.88700
C2211       C  0.68973386  0.22534601  0.28383557     0.85200
O2212       O  0.85201649  0.04229258  0.28807017    -0.66900
O2213       O  0.93320844  0.21546243  0.36185930    -0.86200
C2214       C  0.86122857  0.08281551  0.27939153     0.86000
C2215       C  0.96165481  0.06461144  0.25466745     1.07600
H2216       H  0.91251690  0.16080731  0.31734633     0.39400
O2217       O  0.94105941  0.16060070  0.32222567    -1.08800
O2218       O  0.98549096  0.13187081  0.35787033    -0.65500
Ni2219     Ni  0.92352549  0.10806638  0.34354077     1.26300
O2220       O  0.90271540  0.11651199  0.27581500    -0.65700
O2221       O  0.90423050  0.13741782  0.37235273    -0.78000
C2222       C  0.86558142  0.01932217  0.35612408     0.85400
O2223       O  0.90574488  0.05274200  0.36302318    -0.65200
Ni2224     Ni  0.98239571  0.22399295  0.33609332     1.27400
Ni2225     Ni  0.96123619  0.13574294  0.29300923     1.26100
H2226       H  0.96842784  0.07765427  0.31838103     0.40000
N2227       N  0.68799444  0.42022476  0.08778707    -0.02600
C2228       C  0.71410616  0.43878577  0.11083494     0.00000
C2229       C  0.72749280  0.40623077  0.11952764    -0.22900
C2230       C  0.71409888  0.37020795  0.10014611    -0.23100
C2231       C  0.69048517  0.38001859  0.08089039    -0.00100
H2232       H  0.75218147  0.41259592  0.13563567     0.13700
H2233       H  0.72523328  0.34324854  0.09881218     0.13700
N2234       N  0.95125311  0.51955696  0.06999024    -0.02600
C2235       C  0.99118655  0.55274064  0.05766259     0.00000
C2236       C  0.02701141  0.57846795  0.07663699    -0.22900
C2237       C  0.00583086  0.57017284  0.10093209    -0.23100
C2238       C  0.95904467  0.53763740  0.09582547    -0.00100
H2239       H  0.06191377  0.60834020  0.07311043     0.13700
H2240       H  0.02139791  0.59023641  0.11955177     0.13700
N2241       N  0.86023414  0.34302470  0.05508301    -0.02600
C2242       C  0.85659932  0.33970130  0.02779982     0.00000
C2243       C  0.85488789  0.63082317  0.01797906    -0.22900
C2244       C  0.85050560  0.60413005  0.03958409    -0.23100
C2245       C  0.85146757  0.63162940  0.06185641    -0.00100
H2246       H  0.84684052  0.61622340  0.99753300     0.13700
H2247       H  0.84220645  0.56676789  0.03898596     0.13700
C2248       C  0.89931210  0.38631368  0.06729650     0.81100
N2249       N  0.90369290  0.43093097  0.06386449    -0.77200
C2250       C  0.94623963  0.47170559  0.06882370     0.83600
N2251       N  0.98426222  0.46746144  0.07652760    -0.77100
C2252       C  0.98037629  0.42417541  0.08053967     0.83700
N2253       N  0.93768292  0.38385704  0.07623996    -0.78800
N2254       N  0.87677100  0.62258487  0.91755888    -0.02600
C2255       C  0.89182459  0.63138590  0.94372276     0.00000
C2256       C  0.90194062  0.34444851  0.95159171    -0.22900
C2257       C  0.89826076  0.36613978  0.92938549    -0.23100
C2258       C  0.88389606  0.33193058  0.90880648    -0.00100
H2259       H  0.91861935  0.36346269  0.97028624     0.13700
H2260       H  0.90687710  0.40326748  0.92822954     0.13700
N2261       N  0.80005331  0.44877969  0.90728412    -0.02600
C2262       C  0.84210038  0.45549635  0.89746794     0.00000
C2263       C  0.87481197  0.46873370  0.91808010    -0.22900
C2264       C  0.84910058  0.45932234  0.94126106    -0.23100
C2265       C  0.80178838  0.43798242  0.93324332    -0.00100
H2266       H  0.91051675  0.47447550  0.91650157     0.13700
H2267       H  0.86179949  0.45446415  0.96022936     0.13700
C2268       C  0.79694714  0.49223139  0.90482219     0.81100
N2269       N  0.83489995  0.53505175  0.91323560    -0.77200
C2270       C  0.83836810  0.57736252  0.90711087     0.83600
N2271       N  0.80164314  0.57663672  0.89404137    -0.77100
C2272       C  0.76097232  0.53500911  0.88833402     0.83700
N2273       N  0.75895635  0.49197566  0.89292550    -0.78800
N2274       N  0.71973953  0.53845933  0.88096359    -0.02600
C2275       C  0.70027392  0.52840797  0.85576902     0.00000
C2276       C  0.68282730  0.55920839  0.85054184    -0.22900
C2277       C  0.69001082  0.58789163  0.87288899    -0.23100
C2278       C  0.71229641  0.57455265  0.89126280    -0.00100
H2279       H  0.99363314  0.55608706  0.83388242     0.13700
H2280       H  0.67797145  0.61404119  0.87591884     0.13700
O2281       O  0.92058736  0.59791383  0.97606272    -0.80000
O2282       O  0.78634423  0.34298187  0.02631493    -0.64700
O2283       O  0.67757420  0.33232896  0.99298155    -1.11300
C2284       C  0.72188421  0.59599452  0.91887616     1.06900
O2285       O  0.82838906  0.35914357  0.98930247    -0.77900
O2286       O  0.79539570  0.36355345  0.94138619    -0.65500
Ni2287     Ni  0.95073513  0.29828500  0.00991634     1.34900
C2288       C  0.77335803  0.38747334  0.94164145     0.85600
O2289       O  0.72352679  0.37133929  0.04043693    -0.78400
O2290       O  0.97698116  0.33250449  0.04398262    -0.88700
C2291       C  0.82384821  0.35112749  0.01416530     0.85200
O2292       O  0.95540671  0.57733625  0.02320876    -0.66900
O2293       O  0.75614732  0.59953089  0.93283901    -0.82600
C2294       C  0.99232973  0.58089288  0.03427766     0.86000
C2295       C  0.68535836  0.36061947  0.05326153     1.07600
H2296       H  0.71896341  0.59987613  0.98409847     0.39400
O2297       O  0.73308471  0.63311761  0.97925722    -1.08800
O2298       O  0.73041888  0.37020292  0.94930201    -0.65500
Ni2299     Ni  0.68596457  0.63839351  0.96010216     1.26300
O2300       O  0.69993601  0.61430095  0.02920073    -0.65700
O2301       O  0.69494724  0.61228030  0.92703488    -0.78000
C2302       C  0.92730687  0.61969933  0.95402586     0.85400
O2303       O  0.96846507  0.64155736  0.94391945    -0.65200
Ni2304     Ni  0.79022493  0.64554482  0.96177785     1.27400
Ni2305     Ni  0.73130350  0.33768791  0.00998925     1.26100
H2306       H  0.68292578  0.36444958  0.99011823     0.40000
N2307       N  0.87942009  0.54538804  0.73173221    -0.02600
C2308       C  0.84443305  0.53305190  0.71306883     0.00000
C2309       C  0.81844544  0.48345685  0.70945440    -0.22900
C2310       C  0.83591065  0.46441307  0.72664948    -0.23100
C2311       C  0.87302459  0.50228765  0.74027815    -0.00100
H2312       H  0.78589587  0.46263924  0.69819827     0.13700
H2313       H  0.81914171  0.42667703  0.73114575     0.13700
N2314       N  0.71008143  0.63423369  0.75319603    -0.02600
C2315       C  0.71808668  0.29809177  0.77967308     0.00000
C2316       C  0.71183487  0.58622914  0.78479960    -0.22900
C2317       C  0.70641929  0.56258598  0.76072858    -0.23100
C2318       C  0.70878531  0.59382900  0.74187276    -0.00100
H2319       H  0.72298045  0.24309716  0.80267677     0.13700
H2320       H  0.70993433  0.53066614  0.75719044     0.13700
N2321       N  0.96002725  0.38493700  0.72147449    -0.02600
C2322       C  0.92254446  0.38749456  0.73248136     0.00000
C2323       C  0.89615487  0.39312691  0.71304149    -0.22900
C2324       C  0.58667714  0.39898062  0.68958574    -0.23100
C2325       C  0.62628204  0.39517642  0.69501114    -0.00100
H2326       H  0.86691395  0.39971621  0.71618711     0.13700
H2327       H  0.58027252  0.41319774  0.67170630     0.13700
C2328       C  0.66809090  0.30406884  0.74717957     0.81100
N2329       N  0.66996923  0.34462873  0.73740151    -0.77200
C2330       C  0.62921606  0.34233195  0.72808731     0.83600
N2331       N  0.92162232  0.29913312  0.72733579    -0.77100
C2332       C  0.91934579  0.59261413  0.73750848     0.83700
N2333       N  0.62563589  0.59627244  0.74825743    -0.78800
O2334       O  0.67084952  0.47268925  0.81853032    -0.80000
O2335       O  0.79449175  0.36649115  0.78371078    -0.64700
O2336       O  0.91240995  0.45329354  0.81718503    -1.11300
C2337       C  0.87343045  0.34079466  0.88185071     1.06900
O2338       O  0.75410344  0.33549598  0.82075213    -0.77900
O2339       O  0.80838748  0.40002191  0.86046080    -0.65500
Ni2340     Ni  0.96712210  0.48820949  0.79515097     1.34900
C2341       C  0.84567002  0.42920531  0.87334912     0.85600
O2342       O  0.85606907  0.45983734  0.77893041    -0.78400
O2343       O  0.93319000  0.50564173  0.76956459    -0.88700
C2344       C  0.75692520  0.33738048  0.79540150     0.85200
O2345       O  0.95873016  0.43590003  0.77135414    -0.66900
O2346       O  0.83240506  0.33503686  0.87767623    -0.86200
C2347       C  0.92058078  0.40365502  0.76051082     0.86000
C2348       C  0.88937602  0.49125934  0.76518632     1.07600
H2349       H  0.85356394  0.33825277  0.81383329     0.39400
O2350       O  0.85178953  0.36401033  0.82382883    -1.08800
O2351       O  0.88554798  0.43184319  0.86852587    -0.65500
Ni2352     Ni  0.91115337  0.40649369  0.84108845     1.26300
O2353       O  0.87996751  0.39053668  0.77072073    -0.65700
O2354       O  0.90666220  0.35930103  0.86498263    -0.78000
C2355       C  0.67188469  0.47974396  0.84382189     0.85400
O2356       O  0.97076007  0.45051171  0.85748545    -0.65200
Ni2357     Ni  0.79768808  0.33816595  0.84748824     1.27400
Ni2358     Ni  0.85361653  0.41111102  0.80034794     1.26100
H2359       H  0.90841387  0.47743698  0.82750235     0.40000
N2360       N  0.82916814  0.44258424  0.56549269    -0.02600
C2361       C  0.83791212  0.48649425  0.57605419     0.00000
C2362       C  0.85066998  0.51890758  0.55578709    -0.22900
C2363       C  0.83719110  0.49127262  0.53235148    -0.23100
C2364       C  0.81542022  0.44345590  0.53981871    -0.00100
H2365       H  0.85765275  0.55582320  0.55780690     0.13700
H2366       H  0.83106533  0.50384527  0.51375527     0.13700
N2367       N  0.00155622  0.51285150  0.55962298    -0.02600
C2368       C  0.70699541  0.51259266  0.56940907     0.00000
C2369       C  0.74098314  0.52366867  0.55024758    -0.22900
C2370       C  0.72331705  0.53094557  0.52744281    -0.23100
C2371       C  0.67972631  0.52644543  0.53377233    -0.00100
H2372       H  0.77588292  0.52868263  0.55303340     0.13700
H2373       H  0.74357557  0.54595475  0.50949244     0.13700
N2374       N  0.91433885  0.35530881  0.58955175    -0.02600
C2375       C  0.95115036  0.34829455  0.58153155     0.00000
C2376       C  0.96296437  0.65938600  0.60077269    -0.22900
C2377       C  0.93364687  0.65304121  0.62175745    -0.23100
C2378       C  0.90440400  0.33753792  0.61445474    -0.00100
H2379       H  0.98944277  0.64799652  0.59938326     0.13700
H2380       H  0.93106589  0.63359010  0.63956886     0.13700
C2381       C  0.87131463  0.43721935  0.56724358     0.81100
N2382       N  0.86954978  0.39673126  0.57725427    -0.77200
C2383       C  0.91117677  0.39701994  0.58235099     0.83600
N2384       N  0.95225889  0.43796155  0.57980847    -0.77100
C2385       C  0.95525489  0.47633738  0.56783389     0.83700
N2386       N  0.91455432  0.47536436  0.56066907    -0.78800
O2387       O  0.67187977  0.42423919  0.65481967    -0.80000
O2388       O  0.82329863  0.62028814  0.61600441    -0.64700
O2389       O  0.76454013  0.50386090  0.65264892    -1.11300
C2390       C  0.72867528  0.59154303  0.71582403     1.06900
O2391       O  0.86115993  0.65925628  0.65335661    -0.77900
O2392       O  0.84475453  0.60227603  0.69408792    -0.65500
Ni2393     Ni  0.72938720  0.44295456  0.63389611     1.34900
C2394       C  0.82243375  0.56133582  0.70421615     0.85600
O2395       O  0.81837954  0.53441239  0.60571209    -0.78400
O2396       O  0.78419919  0.45497712  0.61248197    -0.88700
C2397       C  0.85952950  0.65289349  0.62799020     0.85200
O2398       O  0.70774126  0.46427756  0.60408032    -0.66900
O2399       O  0.77188446  0.62287800  0.71165649    -0.86200
C2400       C  0.71591028  0.50581353  0.59725659     0.86000
C2401       C  0.81296424  0.49238505  0.60002893     1.07600
H2402       H  0.74770443  0.59576391  0.65237031     0.39400
O2403       O  0.76878859  0.58602301  0.66005438    -1.08800
O2404       O  0.77794828  0.53955860  0.70504321    -0.65500
Ni2405     Ni  0.73331927  0.52693373  0.67715534     1.26300
O2406       O  0.73921585  0.54379244  0.61166546    -0.65700
O2407       O  0.70508438  0.55390981  0.70077349    -0.78000
C2408       C  0.66921039  0.42854675  0.68040112     0.85400
O2409       O  0.69859556  0.46625433  0.69328737    -0.65200
Ni2410     Ni  0.81525519  0.63837102  0.68165954     1.27400
Ni2411     Ni  0.79365930  0.56075590  0.63311265     1.26100
H2412       H  0.79001751  0.50239910  0.66153929     0.40000
N2413       N  0.88725984  0.56222241  0.40890329    -0.02600
C2414       C  0.88067119  0.51853515  0.39938914     0.00000
C2415       C  0.86693321  0.48691790  0.42014231    -0.22900
C2416       C  0.87822504  0.51544114  0.44322168    -0.23100
C2417       C  0.89914924  0.56282109  0.43511471    -0.00100
H2418       H  0.86127658  0.45041882  0.41902899     0.13700
H2419       H  0.88382418  0.50414333  0.46238951     0.13700
N2420       N  0.71466772  0.49220064  0.41290373    -0.02600
C2421       C  0.67841012  0.49531901  0.40142390     0.00000
C2422       C  0.97800415  0.48978239  0.41985845    -0.22900
C2423       C  0.99192039  0.48149896  0.44359461    -0.23100
C2424       C  0.70015182  0.48074210  0.43882265    -0.00100
H2425       H  0.94573833  0.48973504  0.41631587     0.13700
H2426       H  0.97029600  0.46997694  0.46140745     0.13700
N2427       N  0.80636607  0.65675212  0.39300002    -0.02600
C2428       C  0.77208760  0.66813697  0.40026230     0.00000
C2429       C  0.77228807  0.70203414  0.38369572    -0.22900
C2430       C  0.80674580  0.37805747  0.36533125    -0.23100
C2431       C  0.82657847  0.68328558  0.37145665    -0.00100
H2432       H  0.74998096  0.38526610  0.38498345     0.13700
H2433       H  0.81667279  0.40299592  0.34926574     0.13700
C2434       C  0.84500224  0.56691138  0.40576415     0.81100
N2435       N  0.80124814  0.52759949  0.40996791    -0.77200
C2436       C  0.76135920  0.53096793  0.40746554     0.83600
N2437       N  0.76543855  0.57372390  0.40181925    -0.77100
C2438       C  0.80733959  0.61358264  0.39939401     0.83700
N2439       N  0.84799131  0.61042774  0.40068278    -0.78800
O2440       O  0.65524264  0.55337165  0.49726342    -0.80000
O2441       O  0.68563238  0.40143898  0.44504336    -0.64700
O2442       O  0.70951482  0.64736104  0.48221957    -1.11300
C2443       C  0.97442834  0.35763389  0.55513082     1.06900
O2444       O  0.71955322  0.45589957  0.47828270    -0.77900
O2445       O  0.74362855  0.43708138  0.52535334    -0.65500
Ni2446     Ni  0.69518619  0.58622129  0.46742524     1.34900
C2447       C  0.76465954  0.41360524  0.53075689     0.85600
O2448       O  0.72353502  0.67989507  0.43070921    -0.78400
O2449       O  0.73530993  0.61701040  0.43726604    -0.88700
C2450       C  0.70478912  0.44485234  0.45410507     0.85200
O2451       O  0.97273166  0.57246217  0.44812847    -0.66900
O2452       O  0.98355425  0.39546302  0.54259416    -0.86200
C2453       C  0.94896203  0.59391548  0.44485247     0.86000
C2454       C  0.74164589  0.65332390  0.42414370     1.07600
H2455       H  0.96734710  0.67894759  0.49297681     0.39400
O2456       O  0.66791555  0.36149344  0.49537309    -1.08800
O2457       O  0.74430470  0.36764316  0.52823083    -0.65500
Ni2458     Ni  0.68118486  0.65263783  0.51484290     1.26300
O2459       O  0.96583320  0.63890229  0.45020590    -0.65700
O2460       O  0.98595073  0.65988211  0.54670392    -0.78000
C2461       C  0.67098299  0.56199155  0.52119468     0.85400
O2462       O  0.68966062  0.60459687  0.53154094    -0.65200
Ni2463     Ni  0.68474545  0.42354340  0.51001547     1.27400
Ni2464     Ni  0.69539294  0.35497449  0.46256181     1.26100
H2465       H  0.74339082  0.66416211  0.48482704     0.40000
N2466       N  0.97950997  0.67889555  0.22360122    -0.02600
C2467       C  0.97775788  0.72039896  0.22873114     0.00000
C2468       C  0.96841869  0.73618729  0.20550154    -0.22900
C2469       C  0.96013923  0.70122098  0.18599302    -0.23100
C2470       C  0.96388517  0.66460121  0.19801788    -0.00100
H2471       H  0.95992966  0.76495887  0.20396575     0.13700
H2472       H  0.94356190  0.69830323  0.16678361     0.13700
N2473       N  0.81196336  0.42674092  0.24751275    -0.02600
C2474       C  0.81702060  0.47094568  0.24359983     0.00000
C2475       C  0.82339644  0.49611675  0.26769839    -0.22900
C2476       C  0.82641687  0.46791729  0.28675936    -0.23100
C2477       C  0.82369322  0.42740726  0.27341006    -0.00100
H2478       H  0.83259738  0.53359723  0.27059306     0.13700
H2479       H  0.83886885  0.48039119  0.30708545     0.13700
N2480       N  0.72630282  0.58702430  0.23962164    -0.02600
C2481       C  0.72615479  0.56796683  0.26362180     0.00000
C2482       C  0.73490245  0.52999891  0.25874770    -0.22900
C2483       C  0.73582106  0.52326797  0.23144565    -0.23100
C2484       C  0.73298658  0.56032652  0.21984245    -0.00100
H2485       H  0.73332434  0.50495071  0.27329093     0.13700
H2486       H  0.73994380  0.49501052  0.22113960     0.13700
C2487       C  0.68750593  0.67654685  0.23164250     0.81100
N2488       N  0.72973572  0.38463800  0.23408976    -0.77200
C2489       C  0.77081665  0.38373483  0.23768461     0.83600
N2490       N  0.76915524  0.67375685  0.23924244    -0.77100
C2491       C  0.72741433  0.63205939  0.23650323     0.83700
N2492       N  0.68662357  0.63342600  0.23243833    -0.78800
O2493       O  0.93535614  0.53914772  0.14032435    -0.80000
O2494       O  0.80353317  0.59574351  0.19758808    -0.64700
O2495       O  0.84640944  0.52039156  0.15904782    -1.11300
C2496       C  0.83763683  0.61018957  0.08842672     1.06900
O2497       O  0.74072646  0.56790138  0.17152608    -0.77900
O2498       O  0.73626423  0.52105570  0.12348652    -0.65500
Ni2499     Ni  0.89870029  0.51535334  0.17231227     1.34900
C2500       C  0.74929883  0.49066905  0.11598887     0.85600
O2501       O  0.82269441  0.52711169  0.21247127    -0.78400
O2502       O  0.86356843  0.48787857  0.20443481    -0.88700
C2503       C  0.75983196  0.57923338  0.19502876     0.85200
O2504       O  0.93595365  0.57966116  0.18890024    -0.66900
O2505       O  0.80286881  0.61045535  0.10130993    -0.86200
C2506       C  0.92707560  0.61446234  0.19117347     0.86000
C2507       C  0.83490638  0.49626037  0.21843122     1.07600
H2508       H  0.85237095  0.62014208  0.14848125     0.39400
O2509       O  0.82800626  0.58673222  0.14725809    -1.08800
O2510       O  0.79266844  0.50124787  0.11476943    -0.65500
Ni2511     Ni  0.85295985  0.55313815  0.12686579     1.26300
O2512       O  0.88632435  0.60901550  0.18756793    -0.65700
O2513       O  0.85920196  0.58823688  0.09589757    -0.78000
C2514       C  0.92259915  0.52977102  0.11574167     0.85400
O2515       O  0.88177623  0.52063387  0.10814055    -0.65200
Ni2516     Ni  0.77249120  0.58772361  0.13627521     1.27400
Ni2517     Ni  0.82536757  0.55746947  0.17965435     1.26100
H2518       H  0.82026217  0.48794637  0.15715586     0.40000
O2519       O  0.85630901  0.66967161  0.33199455    -0.80000
O2520       O  0.98240957  0.52756778  0.27587827    -0.64700
O2521       O  0.94110521  0.41400002  0.31387818    -1.11300
C2522       C  0.90688465  0.51232975  0.37603363     1.06900
O2523       O  0.69851132  0.56801588  0.30922423    -0.77900
O2524       O  0.67865288  0.54295096  0.36552146    -0.65500
Ni2525     Ni  0.89358210  0.68589525  0.29974000     1.34900
C2526       C  0.00618147  0.50253067  0.37284518     0.85600
O2527       O  0.97988796  0.44173759  0.26332988    -0.78400
O2528       O  0.92738387  0.69612337  0.26616945    -0.88700
C2529       C  0.68973230  0.55867839  0.28383583     0.85200
O2530       O  0.85201766  0.37562771  0.28807069    -0.66900
O2531       O  0.93320783  0.54879653  0.36185948    -0.86200
C2532       C  0.86123024  0.41615094  0.27939233     0.86000
C2533       C  0.96165587  0.39794557  0.25466675     1.07600
H2534       H  0.91251974  0.49414237  0.31734607     0.39400
O2535       O  0.94106036  0.49393510  0.32222572    -1.08800
O2536       O  0.98548844  0.46520426  0.35787147    -0.65500
Ni2537     Ni  0.92352394  0.44140004  0.34354039     1.26300
O2538       O  0.90271731  0.44984664  0.27581512    -0.65700
O2539       O  0.90422648  0.47075080  0.37235150    -0.78000
C2540       C  0.86557938  0.35265367  0.35612266     0.85400
O2541       O  0.90574134  0.38607527  0.36302284    -0.65200
Ni2542     Ni  0.98239570  0.55732738  0.33609404     1.27400
Ni2543     Ni  0.96123800  0.46907714  0.29300957     1.26100
H2544       H  0.96842805  0.41098785  0.31838198     0.40000
N2545       N  0.68799400  0.75355788  0.08778541    -0.02600
C2546       C  0.71410366  0.77211818  0.11083402     0.00000
C2547       C  0.72748725  0.73956175  0.11952815    -0.22900
C2548       C  0.71409390  0.70353868  0.10014688    -0.23100
C2549       C  0.69048333  0.71335074  0.08089001    -0.00100
H2550       H  0.75217386  0.74592592  0.13563720     0.13700
H2551       H  0.72522656  0.67657794  0.09881413     0.13700
N2552       N  0.95125470  0.85289012  0.06999012    -0.02600
C2553       C  0.99118839  0.88607456  0.05766285     0.00000
C2554       C  0.02701338  0.91180020  0.07663736    -0.22900
C2555       C  0.00583290  0.90350327  0.10093254    -0.23100
C2556       C  0.95904634  0.87096888  0.09582579    -0.00100
H2557       H  0.06191577  0.94167269  0.07311114     0.13700
H2558       H  0.02140025  0.92356569  0.11955246     0.13700
N2559       N  0.86023308  0.67635705  0.05508393    -0.02600
C2560       C  0.85659811  0.67303298  0.02780077     0.00000
C2561       C  0.85488852  0.96415585  0.01798005    -0.22900
C2562       C  0.85050746  0.93746297  0.03958493    -0.23100
C2563       C  0.85146930  0.96496204  0.06185733    -0.00100
H2564       H  0.84684096  0.94955619  0.99753398     0.13700
H2565       H  0.84220869  0.90010092  0.03898675     0.13700
C2566       C  0.89931228  0.71964648  0.06729650     0.81100
N2567       N  0.90369372  0.76426401  0.06386402    -0.77200
C2568       C  0.94624108  0.80503854  0.06882237     0.83600
N2569       N  0.98426373  0.80079388  0.07652564    -0.77100
C2570       C  0.98037708  0.75750780  0.08053864     0.83700
N2571       N  0.93768318  0.71718963  0.07623962    -0.78800
N2572       N  0.87677357  0.95591830  0.91755923    -0.02600
C2573       C  0.89182786  0.96471840  0.94372297     0.00000
C2574       C  0.90194536  0.67778545  0.95159083    -0.22900
C2575       C  0.89826716  0.69947569  0.92938360    -0.23100
C2576       C  0.88389749  0.66526362  0.90880593    -0.00100
H2577       H  0.91862694  0.69680118  0.97028452     0.13700
H2578       H  0.90688826  0.73660446  0.92822608     0.13700
N2579       N  0.80005589  0.78211237  0.90728536    -0.02600
C2580       C  0.84210249  0.78882729  0.89746931     0.00000
C2581       C  0.87481402  0.80206523  0.91808152    -0.22900
C2582       C  0.84910262  0.79265530  0.94126252    -0.23100
C2583       C  0.80179038  0.77131599  0.93324476    -0.00100
H2584       H  0.91051887  0.80780734  0.91650311     0.13700
H2585       H  0.86180133  0.78779797  0.96023112     0.13700
C2586       C  0.79695040  0.82556434  0.90482264     0.81100
N2587       N  0.83490321  0.86838494  0.91323585    -0.77200
C2588       C  0.83837122  0.91069568  0.90711083     0.83600
N2589       N  0.80164610  0.90996944  0.89404117    -0.77100
C2590       C  0.76097521  0.86834149  0.88833417     0.83700
N2591       N  0.75895944  0.82530829  0.89292605    -0.78800
N2592       N  0.71974192  0.87179105  0.88096408    -0.02600
C2593       C  0.70027530  0.86173905  0.85576965     0.00000
C2594       C  0.68282784  0.89253888  0.85054285    -0.22900
C2595       C  0.69001185  0.92122226  0.87289001    -0.23100
C2596       C  0.71229848  0.90788402  0.89126356    -0.00100
H2597       H  0.99363459  0.88941944  0.83388189     0.13700
H2598       H  0.67797194  0.94737134  0.87592011     0.13700
O2599       O  0.92059219  0.93124672  0.97606202    -0.80000
O2600       O  0.78634275  0.67631333  0.02631563    -0.64700
O2601       O  0.67757315  0.66566180  0.99298252    -1.11300
C2602       C  0.72188674  0.92932646  0.91887693     1.06900
O2603       O  0.82838755  0.69247328  0.98930315    -0.77900
O2604       O  0.79539553  0.69688631  0.94138773    -0.65500
Ni2605     Ni  0.95073347  0.63161445  0.00991641     1.34900
C2606       C  0.77335888  0.72080716  0.94164311     0.85600
O2607       O  0.72352566  0.70467145  0.04043728    -0.78400
O2608       O  0.97698001  0.66583322  0.04398282    -0.88700
C2609       C  0.82384648  0.68445797  0.01416602     0.85200
O2610       O  0.95540977  0.91067238  0.02320941    -0.66900
O2611       O  0.75615102  0.93286478  0.93283952    -0.82600
C2612       C  0.99233243  0.91422803  0.03427822     0.86000
C2613       C  0.68535693  0.69395096  0.05326166     1.07600
H2614       H  0.71896537  0.93320940  0.98409978     0.39400
O2615       O  0.73308671  0.96645119  0.97925798    -1.08800
O2616       O  0.73041956  0.70353747  0.94930341    -0.65500
Ni2617     Ni  0.68596655  0.97172648  0.96010228     1.26300
O2618       O  0.69993662  0.94763627  0.02920172    -0.65700
O2619       O  0.69494885  0.94561105  0.92703573    -0.78000
C2620       C  0.92731053  0.95303174  0.95402514     0.85400
O2621       O  0.96846852  0.97489049  0.94391863    -0.65200
Ni2622     Ni  0.79022747  0.97887847  0.96177890     1.27400
Ni2623     Ni  0.73130223  0.67102001  0.00998997     1.26100
H2624       H  0.68292441  0.69778284  0.99011965     0.40000
N2625       N  0.87941858  0.87872336  0.73173309    -0.02600
C2626       C  0.84443008  0.86638705  0.71307061     0.00000
C2627       C  0.81844075  0.81679186  0.70945733    -0.22900
C2628       C  0.83590709  0.79774818  0.72665180    -0.23100
C2629       C  0.87302264  0.83562291  0.74027950    -0.00100
H2630       H  0.78589048  0.79597439  0.69820178     0.13700
H2631       H  0.81913951  0.76001193  0.73114767     0.13700
N2632       N  0.71008267  0.96757352  0.75319657    -0.02600
C2633       C  0.71808855  0.63142337  0.77967252     0.00000
C2634       C  0.71183027  0.91956392  0.78479881    -0.22900
C2635       C  0.70641705  0.89592361  0.76072717    -0.23100
C2636       C  0.70878727  0.92716989  0.74187243    -0.00100
H2637       H  0.72298471  0.57642999  0.80267614     0.13700
H2638       H  0.70993045  0.86400301  0.75718824     0.13700
N2639       N  0.96003024  0.71827062  0.72147392    -0.02600
C2640       C  0.92254815  0.72083019  0.73248036     0.00000
C2641       C  0.89615956  0.72646421  0.71304052    -0.22900
C2642       C  0.58667679  0.73231452  0.68958702    -0.23100
C2643       C  0.62628200  0.72851099  0.69501268    -0.00100
H2644       H  0.86692084  0.73305740  0.71618624     0.13700
H2645       H  0.58027280  0.74653275  0.67170782     0.13700
C2646       C  0.66808959  0.63740031  0.74718047     0.81100
N2647       N  0.66996830  0.67796034  0.73740214    -0.77200
C2648       C  0.62921538  0.67566411  0.72808772     0.83600
N2649       N  0.92162309  0.63246691  0.72733723    -0.77100
C2650       C  0.91934402  0.92595002  0.73750864     0.83700
N2651       N  0.62563678  0.92960912  0.74825832    -0.78800
O2652       O  0.67084901  0.80601976  0.81853098    -0.80000
O2653       O  0.79449489  0.69982209  0.78370905    -0.64700
O2654       O  0.91241171  0.78662657  0.81718432    -1.11300
C2655       C  0.87343268  0.67412577  0.88184943     1.06900
O2656       O  0.75410661  0.66883283  0.82075089    -0.77900
O2657       O  0.80838776  0.73334866  0.86046391    -0.65500
Ni2658     Ni  0.96712374  0.82154467  0.79515041     1.34900
C2659       C  0.84567126  0.76253450  0.87335080     0.85600
O2660       O  0.85607009  0.79316964  0.77893028    -0.78400
O2661       O  0.93319062  0.83897786  0.76956488    -0.88700
C2662       C  0.75692790  0.67071340  0.79540012     0.85200
O2663       O  0.95873356  0.76923786  0.77135208    -0.66900
O2664       O  0.83240543  0.66836166  0.87767308    -0.86200
C2665       C  0.92058456  0.73699093  0.76050951     0.86000
C2666       C  0.88937622  0.82459399  0.76518683     1.07600
H2667       H  0.85356837  0.67158679  0.81383238     0.39400
O2668       O  0.85179269  0.69734307  0.82382786    -1.08800
O2669       O  0.88555024  0.76517592  0.86852567    -0.65500
Ni2670     Ni  0.91115617  0.73982732  0.84108789     1.26300
O2671       O  0.87997129  0.72387064  0.77071983    -0.65700
O2672       O  0.90666618  0.69263610  0.86498265    -0.78000
C2673       C  0.67188586  0.81307473  0.84382263     0.85400
O2674       O  0.97076312  0.78384574  0.85748435    -0.65200
Ni2675     Ni  0.79768967  0.67149564  0.84748619     1.27400
Ni2676     Ni  0.85361885  0.74444328  0.80034700     1.26100
H2677       H  0.90841460  0.81076973  0.82750188     0.40000
N2678       N  0.82916754  0.77591950  0.56549473    -0.02600
C2679       C  0.83790969  0.81982912  0.57605576     0.00000
C2680       C  0.85066806  0.85224227  0.55578850    -0.22900
C2681       C  0.83719178  0.82460706  0.53235290    -0.23100
C2682       C  0.81542093  0.77679034  0.53982035    -0.00100
H2683       H  0.85764949  0.88915750  0.55780784     0.13700
H2684       H  0.83106702  0.83717918  0.51375621     0.13700
N2685       N  0.00155598  0.84618846  0.55962459    -0.02600
C2686       C  0.70699163  0.84592530  0.56941134     0.00000
C2687       C  0.74097781  0.85699578  0.55024955    -0.22900
C2688       C  0.72331245  0.86427203  0.52744429    -0.23100
C2689       C  0.67972357  0.85977656  0.53377376    -0.00100
H2690       H  0.77587622  0.86200628  0.55303540     0.13700
H2691       H  0.74357087  0.87927792  0.50949345     0.13700
N2692       N  0.91433958  0.68864550  0.58955332    -0.02600
C2693       C  0.95115005  0.68162998  0.58153258     0.00000
C2694       C  0.96296015  0.99271011  0.60077054    -0.22900
C2695       C  0.93364033  0.98636195  0.62175452    -0.23100
C2696       C  0.90440429  0.67087381  0.61445607    -0.00100
H2697       H  0.98943704  0.98131860  0.59938048     0.13700
H2698       H  0.93105635  0.96690701  0.63956477     0.13700
C2699       C  0.87131476  0.77055628  0.56724664     0.81100
N2700       N  0.86955033  0.73006812  0.57725684    -0.77200
C2701       C  0.91117746  0.73035664  0.58235274     0.83600
N2702       N  0.95225951  0.77129805  0.57980976    -0.77100
C2703       C  0.95525507  0.80967456  0.56783621     0.83700
N2704       N  0.91455422  0.80870181  0.56067229    -0.78800
O2705       O  0.67187987  0.75757540  0.65482233    -0.80000
O2706       O  0.82329499  0.95362202  0.61600464    -0.64700
O2707       O  0.76453946  0.83719694  0.65265122    -1.11300
C2708       C  0.72867690  0.92488432  0.71582372     1.06900
O2709       O  0.86116102  0.99259067  0.65335565    -0.77900
O2710       O  0.84475431  0.93561174  0.69408793    -0.65500
Ni2711     Ni  0.72938624  0.77629012  0.63389866     1.34900
C2712       C  0.82243259  0.89467245  0.70421725     0.85600
O2713       O  0.81837588  0.86774650  0.60571314    -0.78400
O2714       O  0.78419705  0.78831180  0.61248380    -0.88700
C2715       C  0.85952828  0.98622592  0.62798931     0.85200
O2716       O  0.70773817  0.79761136  0.60408303    -0.66900
O2717       O  0.77188647  0.95621846  0.71165609    -0.86200
C2718       C  0.71590612  0.83914682  0.59725912     0.86000
C2719       C  0.81296133  0.82571948  0.60003035     1.07600
H2720       H  0.74770421  0.92910138  0.65237099     0.39400
O2721       O  0.76878837  0.91935987  0.66005514    -1.08800
O2722       O  0.77794726  0.87289748  0.70504510    -0.65500
Ni2723     Ni  0.73331886  0.86027159  0.67715683     1.26300
O2724       O  0.73921155  0.87712592  0.61166782    -0.65700
O2725       O  0.70508517  0.88725053  0.70077369    -0.78000
C2726       C  0.66921013  0.76188359  0.68040357     0.85400
O2727       O  0.69859332  0.79959276  0.69328971    -0.65200
Ni2728     Ni  0.81525684  0.97170849  0.68165905     1.27400
Ni2729     Ni  0.79365711  0.89409087  0.63311377     1.26100
H2730       H  0.79002180  0.83573558  0.66154305     0.40000
N2731       N  0.88726176  0.89555652  0.40890363    -0.02600
C2732       C  0.88067293  0.85186939  0.39938891     0.00000
C2733       C  0.86693598  0.82025170  0.42014178    -0.22900
C2734       C  0.87822845  0.84877437  0.44322135    -0.23100
C2735       C  0.89915186  0.89615460  0.43511487    -0.00100
H2736       H  0.86127984  0.78375279  0.41902797     0.13700
H2737       H  0.88382828  0.83747611  0.46238885     0.13700
N2738       N  0.71466939  0.82553313  0.41290301    -0.02600
C2739       C  0.67841129  0.82865091  0.40142321     0.00000
C2740       C  0.97800929  0.82312110  0.41985778    -0.22900
C2741       C  0.99192641  0.81483890  0.44359404    -0.23100
C2742       C  0.70015432  0.81407618  0.43882228    -0.00100
H2743       H  0.94574410  0.82307530  0.41631561     0.13700
H2744       H  0.97030300  0.80331903  0.46140734     0.13700
N2745       N  0.80636708  0.99008613  0.39300104    -0.02600
C2746       C  0.77208779  0.00146988  0.40026304     0.00000
C2747       C  0.77228632  0.03536571  0.38369621    -0.22900
C2748       C  0.80675465  0.71139967  0.36533487    -0.23100
C2749       C  0.82657832  0.01661954  0.37145741    -0.00100
H2750       H  0.74999226  0.71861182  0.38498795     0.13700
H2751       H  0.81668400  0.73634016  0.34927026     0.13700
C2752       C  0.84500404  0.90024567  0.40576528     0.81100
N2753       N  0.80124995  0.86093314  0.40996805    -0.77200
C2754       C  0.76136069  0.86430067  0.40746456     0.83600
N2755       N  0.76543972  0.90705673  0.40181848    -0.77100
C2756       C  0.80734075  0.94691638  0.39939474     0.83700
N2757       N  0.84799284  0.94376228  0.40068474    -0.78800
O2758       O  0.65524413  0.88670421  0.49726359    -0.80000
O2759       O  0.68563343  0.73477304  0.44504425    -0.64700
O2760       O  0.70951538  0.98069458  0.48222016    -1.11300
C2761       C  0.97442756  0.69096915  0.55513167     1.06900
O2762       O  0.71955396  0.78923433  0.47828333    -0.77900
O2763       O  0.74363063  0.77041603  0.52535345    -0.65500
Ni2764     Ni  0.69518789  0.91955514  0.46742580     1.34900
C2765       C  0.76466055  0.74693949  0.53075805     0.85600
O2766       O  0.72353752  0.01322975  0.43071035    -0.78400
O2767       O  0.73531159  0.95034436  0.43726685    -0.88700
C2768       C  0.70479078  0.77818659  0.45410549     0.85200
O2769       O  0.97273443  0.90579663  0.44812891    -0.66900
O2770       O  0.98355462  0.72879887  0.54259521    -0.86200
C2771       C  0.94896469  0.92724963  0.44485256     0.86000
C2772       C  0.74164744  0.98665783  0.42414465     1.07600
H2773       H  0.96734976  0.01228162  0.49297683     0.39400
O2774       O  0.66791633  0.69482783  0.49537409    -1.08800
O2775       O  0.74430480  0.70097716  0.52823273    -0.65500
Ni2776     Ni  0.68118431  0.98597052  0.51484317     1.26300
O2777       O  0.96583596  0.97223664  0.45020545    -0.65700
O2778       O  0.98595354  0.99321576  0.54670355    -0.78000
C2779       C  0.67098323  0.89532411  0.52119510     0.85400
O2780       O  0.68966028  0.93792945  0.53154136    -0.65200
Ni2781     Ni  0.68474733  0.75687807  0.51001666     1.27400
Ni2782     Ni  0.69539371  0.68830885  0.46256283     1.26100
H2783       H  0.74339205  0.99749613  0.48482793     0.40000
N2784       N  0.97950919  0.01223159  0.22360013    -0.02600
C2785       C  0.97775637  0.05373431  0.22873042     0.00000
C2786       C  0.96841663  0.06952285  0.20550103    -0.22900
C2787       C  0.96013800  0.03455722  0.18599217    -0.23100
C2788       C  0.96388476  0.99793772  0.19801678    -0.00100
H2789       H  0.95992702  0.09829410  0.20396555     0.13700
H2790       H  0.94356075  0.03163959  0.16678274     0.13700
N2791       N  0.81196303  0.76007380  0.24751331    -0.02600
C2792       C  0.81702152  0.80427936  0.24360087     0.00000
C2793       C  0.82339613  0.82944890  0.26769990    -0.22900
C2794       C  0.82641502  0.80124796  0.28676055    -0.23100
C2795       C  0.82369190  0.76073863  0.27341072    -0.00100
H2796       H  0.83259723  0.86692933  0.27059525     0.13700
H2797       H  0.83886536  0.81372029  0.30708704     0.13700
N2798       N  0.72629862  0.92035451  0.23962013    -0.02600
C2799       C  0.72615128  0.90129765  0.26362046     0.00000
C2800       C  0.73489963  0.86333011  0.25874667    -0.22900
C2801       C  0.73581851  0.85659879  0.23144470    -0.23100
C2802       C  0.73298325  0.89365672  0.21984120    -0.00100
H2803       H  0.73332264  0.83828277  0.27329014     0.13700
H2804       H  0.73994339  0.82834237  0.22113893     0.13700
C2805       C  0.68750406  0.00987960  0.23164265     0.81100
N2806       N  0.72973478  0.71797096  0.23409038    -0.77200
C2807       C  0.77081595  0.71706793  0.23768494     0.83600
N2808       N  0.76915269  0.00708765  0.23924110    -0.77100
C2809       C  0.72741128  0.96539039  0.23650160     0.83700
N2810       N  0.68662088  0.96675811  0.23243721    -0.78800
O2811       O  0.93535842  0.87248267  0.14032481    -0.80000
O2812       O  0.80353089  0.92907507  0.19758762    -0.64700
O2813       O  0.84641132  0.85372473  0.15904891    -1.11300
C2814       C  0.83763729  0.94352133  0.08842718     1.06900
O2815       O  0.74072474  0.90123090  0.17152489    -0.77900
O2816       O  0.73626434  0.85438924  0.12348378    -0.65500
Ni2817     Ni  0.89870361  0.84868937  0.17231345     1.34900
C2818       C  0.74929797  0.82400086  0.11598826     0.85600
O2819       O  0.82269645  0.86044657  0.21247243    -0.78400
O2820       O  0.86357266  0.82121546  0.20443660    -0.88700
C2821       C  0.75982944  0.91256362  0.19502776     0.85200
O2822       O  0.93595534  0.91299827  0.18890017    -0.66900
O2823       O  0.80287101  0.94379007  0.10131066    -0.86200
C2824       C  0.92707608  0.94779864  0.19117264     0.86000
C2825       C  0.83490922  0.82959587  0.21843267     1.07600
H2826       H  0.85237026  0.95347268  0.14848056     0.39400
O2827       O  0.82800559  0.92006299  0.14725794    -1.08800
O2828       O  0.79266726  0.83457734  0.11477142    -0.65500
Ni2829     Ni  0.85295951  0.88646877  0.12686618     1.26300
O2830       O  0.88632420  0.94235038  0.18756745    -0.65700
O2831       O  0.85919961  0.92156537  0.09589736    -0.78000
C2832       C  0.92260078  0.86310365  0.11574220     0.85400
O2833       O  0.88177712  0.85396487  0.10814127    -0.65200
Ni2834     Ni  0.77249134  0.92105573  0.13627484     1.27400
Ni2835     Ni  0.82536797  0.89080224  0.17965478     1.26100
H2836       H  0.82026404  0.82127814  0.15715748     0.40000
O2837       O  0.85630635  0.00300849  0.33199351    -0.80000
O2838       O  0.98240639  0.86089771  0.27587649    -0.64700
O2839       O  0.94110516  0.74733242  0.31387840    -1.11300
C2840       C  0.90688527  0.84566390  0.37603282     1.06900
O2841       O  0.69850938  0.90134706  0.30922334    -0.77900
O2842       O  0.67865199  0.87628292  0.36552117    -0.65500
Ni2843     Ni  0.89358180  0.01922941  0.29973973     1.34900
C2844       C  0.00618348  0.83586642  0.37284371     0.85600
O2845       O  0.97988871  0.77506885  0.26333096    -0.78400
O2846       O  0.92738640  0.02945665  0.26617034    -0.88700
C2847       C  0.68972948  0.89200939  0.28383500     0.85200
O2848       O  0.85201585  0.70895975  0.28807383    -0.66900
O2849       O  0.93320551  0.88212967  0.36185736    -0.86200
C2850       C  0.86122859  0.74948151  0.27939308     0.86000
C2851       C  0.96165554  0.73127694  0.25466778     1.07600
H2852       H  0.91251559  0.82747253  0.31734457     0.39400
O2853       O  0.94105810  0.82726684  0.32222454    -1.08800
O2854       O  0.98549120  0.79854000  0.35786995    -0.65500
Ni2855     Ni  0.92352512  0.77473370  0.34354035     1.26300
O2856       O  0.90271589  0.78317494  0.27581336    -0.65700
O2857       O  0.90422938  0.80408581  0.37235156    -0.78000
C2858       C  0.86558295  0.68598861  0.35612454     0.85400
O2859       O  0.90574551  0.71941054  0.36302349    -0.65200
Ni2860     Ni  0.98239311  0.89066003  0.33609198     1.27400
Ni2861     Ni  0.96123656  0.80240846  0.29300911     1.26100
H2862       H  0.96842782  0.74432043  0.31838190     0.40000
loop_ 
_geom_bond_atom_site_label_1 
_geom_bond_atom_site_label_2 
_geom_bond_distance 
_geom_bond_site_symmetry_2 
_ccdc_geom_bond_type 
N1            C5   1.351       .  A
N1            C2   1.367       .  A
N1         C1934   1.445   1_455  S
C2            C3   1.390       .  A
C2          C274   1.492       .  S
C3            C4   1.367       .  A
C3            H6   1.083       .  S
C4            C5   1.373       .  A
C4            H7   1.081       .  S
C5           C69   1.463       .  S
N8           C12   1.363       .  A
N8            C9   1.366       .  A
N8           C24   1.449       .  S
C9           C10   1.397       .  A
C9           C68   1.490       .  S
C10          C11   1.355       .  A
C10          H13   1.083       .  S
C11          C12   1.375       .  A
C11          H14   1.083       .  S
C12         C288   1.464       .  S
N15          C16   1.362       .  A
N15         C655   1.366   1_545  A
N15          C22   1.456       .  S
C16         C653   1.385   1_545  A
C16          C65   1.463       .  S
C17          C18   1.363       .  A
C17         C334   1.385       .  A
C17          H20   1.083   1_554  S
C18          C19   1.375       .  A
C18          H21   1.083       .  S
C19         N333   1.366       .  A
C19         C270   1.478       .  S
C22          N23   1.374       .  A
C22          N27   1.366       .  A
N23          C24   1.372       .  A
C24          N25   1.365       .  A
N25          C26   1.344       .  A
C26          N27   1.363       .  A
C26         N955   1.445       .  S
N28          C29   1.368       .  A
N28         C350   1.353       .  A
N28          C44   1.448       .  S
C29         C348   1.387       .  A
C29          C76   1.475       .  S
C30          C31   1.366       .  A
C30         C665   1.387   1_545  A
C30          H33   1.084       .  S
C31          C32   1.370   1_545  A
C31          H34   1.077       .  S
C32         N664   1.353       .  A
C32         C111   1.463   1_565  S
N35          C39   1.362       .  A
N35          C36   1.359       .  A
N35          C42   1.445       .  S
C36          C37   1.384       .  A
C36         C115   1.471       .  S
C37          C38   1.371       .  A
C37          H40   1.082       .  S
C38          C39   1.396       .  A
C38          H41   1.083       .  S
C39          C62   1.486       .  S
C42          N43   1.369       .  A
C42          N47   1.371       .  A
N43          C44   1.344       .  A
C44          N45   1.355       .  A
N45          C46   1.359       .  A
C46          N47   1.368       .  A
C46          N48   1.447       .  S
N48          C52   1.363       .  A
N48          C49   1.367       .  A
C49          C50   1.384       .  A
C49         C129   1.465       .  S
C50          C51   1.357       .  A
C50        H1961   1.083   1_455  S
C51          C52   1.376       .  A
C51          H54   1.083       .  S
C52          C58   1.477       .  S
H53        C1004   1.083       .  S
O55          C76   1.283       .  A
O55        Ni379   1.955   1_556  S
O56          C65   1.263       .  A
O56         Ni79   1.900       .  S
O57         Ni79   1.876   1_566  S
O57       Ni1969   1.913   1_456  S
O57        Ni709   1.900       .  S
O57          H80   0.967   1_565  S
C58          O75   1.269       .  A
C58          O67   1.274       .  A
O59          C65   1.268   1_556  A
O59        Ni714   1.927   1_545  S
O60          C62   1.273       .  A
O60        Ni714   1.898   1_545  S
Ni61         O64   1.943       .  S
Ni61        O691   1.955   1_554  S
Ni61        O702   1.950       .  S
Ni61       O1011   1.913   1_554  S
C62          O72   1.281       .  A
O63          C69   1.280       .  A
O63         Ni79   1.905       .  S
O64        C1023   1.282   1_565  A
O66          C68   1.277       .  A
O66        Ni379   1.950       .  S
O67         Ni78   1.932       .  S
C68        O1028   1.261       .  A
C69        O1972   1.282   1_445  A
H70          O71   0.966       .  S
O71         Ni73   1.892       .  S
O71         Ni78   1.901       .  S
O71        Ni397   1.927   1_556  S
O72        Ni709   1.955   1_545  S
Ni73         O75   1.897       .  S
Ni73        O390   1.955       .  S
Ni73       O1985   1.893   1_455  S
Ni73        O375   1.900       .  S
O74        C1976   1.261   1_455  A
O74        Ni397   1.881       .  S
C76          O77   1.274       .  A
O77       Ni1027   1.893       .  S
Ni78        O377   1.927       .  S
Ni78        O378   1.898       .  S
Ni79        O710   1.881   1_545  S
Ni79        O707   1.927   1_544  S
N81          C85   1.370       .  A
N81          C82   1.367       .  A
N81         C106   1.446       .  S
C82          C83   1.384       .  A
C82         C168   1.477       .  S
C83          C84   1.348       .  A
C83          H86   1.081       .  S
C84          C85   1.378       .  A
C84          H87   1.082       .  S
C85         C122   1.478       .  S
N88          C92   1.364       .  A
N88         C407   1.364       .  A
N88         C420   1.449       .  S
C89         N724   1.364       .  A
C89         C726   1.386       .  A
C89         C118   1.473   1_565  S
C90          C91   1.356       .  A
C90         C407   1.386       .  A
C90         H411   1.080       .  S
C91          C92   1.372       .  A
C91          H94   1.083       .  S
C92         C164   1.457       .  S
H93         C726   1.080       .  S
N95          C96   1.363       .  A
N95        C1053   1.374       .  A
N95        C1058   1.450       .  S
C96          C97   1.375       .  A
C96         C121   1.480       .  S
C97        C1052   1.361       .  A
C97         H100   1.074       .  S
C98          C99   1.378       .  A
C98        C2005   1.361       .  A
C98         H101   1.084       .  S
C99        N2003   1.374       .  A
C99         C182   1.480   1_655  S
C102        N103   1.373   1_565  A
C102        N743   1.362   1_455  A
C102        N724   1.449       .  S
N103        C104   1.373   1_455  A
C104       N2013   1.367   1_545  A
C104       N2003   1.450       .  S
N105       C1058   1.367   1_565  A
N105        C742   1.354       .  A
C106        N423   1.354       .  A
C106       N1061   1.348       .  A
N107        C420   1.362   1_655  A
N107       C2014   1.348       .  A
O108        C129   1.270       .  A
O108      Ni2022   1.927   1_455  S
O109        C118   1.267       .  A
O109       Ni132   1.914       .  S
O110       Ni114   1.926       .  S
O110       Ni132   1.895       .  S
O110       Ni126   1.932       .  S
O110        H133   0.966       .  S
C111        O128   1.269       .  A
C111        O120   1.269       .  A
O112        C118   1.268       .  A
O112       Ni131   1.925       .  S
O113        C115   1.269       .  A
O113       Ni131   1.909       .  S
Ni114       O117   1.960       .  S
Ni114       O119   1.911       .  S
Ni114      O1062   1.927       .  S
C115        O125   1.274       .  A
O116        C122   1.272       .  A
O116       Ni132   1.890       .  S
O117        C122   1.280       .  A
O119        C121   1.268       .  A
O120       Ni131   1.927       .  S
C121        O127   1.276       .  A
H123        O124   0.966       .  S
O124       Ni132   1.919       .  S
O124       Ni126   1.918       .  S
O124       Ni131   1.939       .  S
O125       Ni126   1.933       .  S
Ni126       O130   1.915       .  S
Ni126       O128   1.906       .  S
O127       Ni132   1.941       .  S
C129       O2038   1.263   1_455  A
O130       C1083   1.263       .  A
N134        C138   1.367       .  A
N134        C135   1.366       .  A
N134        C155   1.461       .  S
C135        C136   1.385       .  A
C135        C175   1.490       .  S
C136        C137   1.372       .  A
C136        H139   1.083       .  S
C137        C138   1.395       .  A
C137        H140   1.084       .  S
C138        C221   1.507       .  S
N141       C1099   1.365       .  A
N141       C1096   1.358       .  A
N141        C159   1.446       .  S
C142       N2049   1.358       .  A
C142        C143   1.368       .  A
C142        C174   1.468       .  S
C143        C144   1.358       .  A
C143        H146   1.073       .  S
C144        C145   1.382       .  A
C144        H147   1.084       .  S
C145       N2049   1.365       .  A
C145        C235   1.460       .  S
N148        C152   1.355       .  A
N148        C149   1.368       .  A
N148        C157   1.441       .  S
C149        C786   1.379   1_545  A
C149        C217   1.475       .  S
C150        C151   1.357       .  A
C150        C467   1.379       .  A
C150        H153   1.083       .  S
C151        C470   1.380       .  A
C151        H154   1.083       .  S
C152        C787   1.380   1_545  A
C152        C807   1.446   1_545  S
C155        N156   1.377       .  A
C155        N160   1.380       .  A
N156        C157   1.372       .  A
C157        N158   1.342       .  A
N158        C159   1.343       .  A
C159        N160   1.357       .  A
O161        C182   1.283       .  A
O161       Ni167   1.957       .  S
O162        C171   1.261       .  A
O162       Ni185   1.892       .  S
O163       Ni167   1.910       .  S
O163       Ni185   1.891       .  S
O163       Ni179   1.916       .  S
O163        H186   0.964       .  S
C164        O181   1.276       .  A
C164        O173   1.282       .  A
O165        C171   1.270       .  A
O165       Ni184   1.924       .  S
O166        C168   1.266       .  A
O166       Ni184   1.941       .  S
Ni167       O170   1.939       .  S
Ni167       O172   1.935       .  S
C168        O178   1.259       .  A
O169        C175   1.281       .  A
O169       Ni185   1.933       .  S
O170        C175   1.279       .  A
C171        C470   1.446       .  S
O172        C174   1.276       .  A
O173       Ni184   1.945       .  S
C174        O180   1.264       .  A
H176        O177   0.967       .  S
O177       Ni185   1.900       .  S
O177       Ni179   1.893       .  S
O177       Ni184   1.910       .  S
O178       Ni179   1.905       .  S
Ni179       O183   1.905       .  S
Ni179       O181   1.900       .  S
O180       Ni185   1.903       .  S
C182        O183   1.263       .  A
N187        C191   1.365       .  A
N187        C188   1.364       .  A
N187        C208   1.459       .  S
C188        C189   1.386       .  A
C188        C296   1.494       .  S
C189        C190   1.371       .  A
C189        H192   1.083       .  S
C190        C191   1.394       .  A
C190        H193   1.083       .  S
C191        C227   1.498       .  S
N194        C198   1.371       .  A
N194        C195   1.362       .  A
N194        C210   1.442       .  S
C195       C2104   1.367   1_455  A
C195       C2208   1.480       .  S
C196        C197   1.353       .  A
C196       C1149   1.367       .  A
C196        H199   1.062       .  S
C197       C1152   1.376       .  A
C197        H200   1.083       .  S
C198       C2105   1.376   1_455  A
C198        C224   1.467       .  S
N201        C205   1.347       .  A
N201        C202   1.366       .  A
N201        C212   1.439       .  S
C202        C203   1.384       .  A
C202        C228   1.475       .  S
C203        C522   1.358       .  A
C203        H524   1.083       .  S
C204        C839   1.358       .  A
C204        C841   1.377       .  A
C204        H207   1.083       .  S
C205        C522   1.377       .  A
C205        C632   1.436       .  S
H206        C839   1.083       .  S
C208        N209   1.379       .  A
C208        N213   1.375       .  A
N209        C210   1.356       .  A
C210        N211   1.343       .  A
N211        C212   1.340       .  A
C212        N213   1.372       .  A
O214        C235   1.270   1_655  A
O214       Ni220   1.934   1_655  S
O215        C224   1.271       .  A
O215       Ni238   1.904       .  S
O216       Ni220   1.884       .  S
O216       Ni232   1.898       .  S
O216       Ni556   1.890       .  S
O216        H239   0.966       .  S
C217        O226   1.280       .  A
C217        O870   1.271   1_545  A
O218        C224   1.274       .  A
O218       Ni237   1.947       .  S
O219        C221   1.271       .  A
O219       Ni237   1.903       .  S
Ni220       O223   1.934       .  S
Ni220      O2133   1.904   1_455  S
C221        O231   1.279       .  A
O222        C228   1.274       .  A
O222       Ni556   1.894       .  S
O223        C228   1.279       .  A
O225        C227   1.270       .  A
O225      Ni1174   1.904       .  S
O226      Ni1191   1.946       .  S
C227        O233   1.276       .  A
H229       O1502   0.966       .  S
O230       Ni238   1.903       .  S
O230       Ni237   1.889       .  S
O230       Ni868   1.902   1_545  S
O230       H2773   0.966   1_455  S
O231       Ni868   1.969   1_545  S
Ni232       O236   1.906       .  S
Ni232       O549   1.969       .  S
Ni232      O2142   1.889   1_455  S
Ni232       O548   1.902       .  S
O233      Ni1510   1.957       .  S
O234        C535   1.271       .  A
O234      Ni1186   1.889       .  S
C235        O236   1.272       .  A
Ni237      O2134   1.946   1_455  S
Ni238       O858   1.894       .  S
Ni238      O2777   1.957   1_445  S
Ni238       O852   1.890   1_545  S
N240        C244   1.354       .  A
N240        C241   1.363       .  A
N240       C1215   1.441       .  S
C241        C242   1.376       .  A
C241        C625   1.478       .  S
C242        C243   1.371       .  A
C242        H245   1.083       .  S
C243        C244   1.390       .  A
C243        H246   1.083       .  S
C244        C280   1.481       .  S
N247        C251   1.348       .  A
N247        C248   1.357       .  A
N247        C263   1.439       .  S
C248        C249   1.375       .  A
C248        C281   1.473       .  S
C249        C250   1.371       .  A
C249        H252   1.083       .  S
C250        C251   1.389       .  A
C250        H253   1.081       .  S
C251        C306   1.464       .  S
N254        C258   1.358       .  A
N254        C255   1.364       .  A
N254        C265   1.431       .  S
C255        C256   1.381       .  A
C255        C303   1.465       .  S
C256        C257   1.371       .  A
C256        H259   1.083       .  S
C257        C258   1.378       .  A
C257        H260   1.080       .  S
C258        C277   1.474       .  S
C261        N266   1.361       .  A
C261        N580   1.362       .  A
C261       N2148   1.441   1_455  S
N262        C263   1.360       .  A
N262        C897   1.362       .  A
C263        N900   1.359       .  A
N264        C265   1.359       .  A
N264        C581   1.359       .  A
C265        N266   1.362       .  A
O267        C288   1.275       .  A
O267       Ni273   1.924       .  S
O268        C277   1.253       .  A
O268       Ni291   1.875       .  S
O269       Ni273   1.908       .  S
O269       Ni291   1.891       .  S
O269       Ni285   1.904       .  S
O269        H292   0.966       .  S
C270        O287   1.273       .  A
C270        O279   1.292       .  A
O271        C277   1.286       .  A
O271       Ni290   1.989       .  S
O272        C274   1.272       .  A
O272       Ni290   1.939       .  S
Ni273       O276   1.929       .  S
Ni273       O278   1.950       .  S
C274        O284   1.277       .  A
O275        C281   1.272       .  A
O275       Ni291   1.915       .  S
O276        C281   1.276       .  A
O278        C280   1.274       .  A
O279       Ni290   1.974       .  S
C280        O286   1.260       .  A
H282        O283   0.966       .  S
O283       Ni291   1.879       .  S
O283       Ni285   1.886       .  S
O283       Ni290   1.903       .  S
O284       Ni285   1.925       .  S
Ni285       O289   1.910       .  S
Ni285       O287   1.895       .  S
O286       Ni291   1.885       .  S
C288        O289   1.268       .  A
O293        C632   1.270       .  A
O293       Ni299   1.929       .  S
O294       C1257   1.258       .  A
O294       Ni317   1.881       .  S
O295       Ni317   1.898       .  S
O295       Ni311   1.904       .  S
O295       Ni935   1.914       .  S
O295        H318   0.966       .  S
C296        O313   1.289       .  A
C296        O305   1.289       .  A
O297        C303   1.291       .  A
O297      Ni2224   1.981   1_455  S
O298       C2208   1.275       .  A
O298      Ni2224   1.951   1_455  S
Ni299       O302   1.938       .  S
Ni299       O622   1.928       .  S
Ni299       O613   1.914       .  S
C300       C1149   1.480       .  S
C300        O310   1.257       .  A
C300       O1252   1.275       .  A
O301        C307   1.277       .  A
O301       Ni317   1.921       .  S
O302        C625   1.280       .  A
C303       O2202   1.258   1_455  A
O304        C306   1.268       .  A
O304       Ni935   1.928       .  S
O305       Ni316   1.953       .  S
C306        O312   1.262       .  A
C307        C877   1.478       .  S
C307        O938   1.280       .  A
H308        O309   0.963       .  S
O309       Ni317   1.886       .  S
O309       Ni311   1.859       .  S
O309       Ni316   1.900       .  S
O310       Ni311   1.904       .  S
Ni311       O315   1.875       .  S
Ni311       O313   1.938       .  S
O312       Ni317   1.891       .  S
C314        C841   1.436       .  S
C314        O315   1.254       .  A
C314        O929   1.270       .  A
Ni316      O1251   1.981       .  S
Ni316      O1252   1.951       .  S
N319        C323   1.351       .  A
N319        C320   1.367       .  A
N319       C2252   1.445   1_455  S
C320        C321   1.390       .  A
C320        C592   1.492       .  S
C321        C322   1.367       .  A
C321        H324   1.083       .  S
C322        C323   1.373       .  A
C322        H325   1.081       .  S
C323        C387   1.463       .  S
N326        C330   1.363       .  A
N326        C327   1.366       .  A
N326        C342   1.449       .  S
C327        C328   1.397       .  A
C327        C386   1.490       .  S
C328        C329   1.355       .  A
C328        H331   1.083       .  S
C329        C330   1.375       .  A
C329        H332   1.083       .  S
C330        C606   1.464       .  S
N333        C334   1.362       .  A
N333        C340   1.456       .  S
C334        C383   1.463       .  S
C335        C652   1.385       .  A
C335        C336   1.363       .  A
C335        H338   1.083   1_554  S
C336        C337   1.375       .  A
C336        H339   1.083       .  S
C337        N651   1.366       .  A
C337        C588   1.478       .  S
C340        N341   1.374       .  A
C340        N345   1.366       .  A
N341        C342   1.372       .  A
C342        N343   1.365       .  A
N343        C344   1.344       .  A
C344        N345   1.363       .  A
C344       N1273   1.445       .  S
N346        C668   1.353       .  A
N346        C347   1.368       .  A
N346        C362   1.448       .  S
C347        C666   1.387       .  A
C347        C394   1.475       .  S
C348        C349   1.366       .  A
C348        H351   1.084       .  S
C349        C350   1.370       .  A
C349        H352   1.077       .  S
C350        C429   1.463       .  S
N353        C357   1.362       .  A
N353        C354   1.359       .  A
N353        C360   1.445       .  S
C354        C355   1.384       .  A
C354        C433   1.471       .  S
C355        C356   1.371       .  A
C355        H358   1.082       .  S
C356        C357   1.396       .  A
C356        H359   1.083       .  S
C357        C380   1.486       .  S
C360        N361   1.369       .  A
C360        N365   1.371       .  A
N361        C362   1.344       .  A
C362        N363   1.355       .  A
N363        C364   1.359       .  A
C364        N365   1.368       .  A
C364        N366   1.447       .  S
N366        C370   1.363       .  A
N366        C367   1.367       .  A
C367        C368   1.384       .  A
C367        C447   1.465       .  S
C368        C369   1.357       .  A
C368       H2279   1.083   1_455  S
C369        C370   1.376       .  A
C369        H372   1.083       .  S
C370        C376   1.477       .  S
H371       C1322   1.083       .  S
O373        C394   1.283       .  A
O373       Ni697   1.955   1_556  S
O374        C383   1.263       .  A
O374       Ni397   1.900       .  S
O375      Ni2287   1.913   1_456  S
O375       Ni397   1.876   1_556  S
O375        H398   0.967       .  S
C376        O393   1.269       .  A
C376        O385   1.274       .  A
O377        C383   1.268   1_556  A
O378        C380   1.273       .  A
Ni379       O382   1.943       .  S
Ni379      O1329   1.913   1_554  S
C380        O390   1.281       .  A
O381        C387   1.280       .  A
O381       Ni397   1.905       .  S
O382       C1341   1.282       .  A
O384        C386   1.277       .  A
O384       Ni697   1.950       .  S
O385       Ni396   1.932       .  S
C386       O1346   1.261       .  A
C387       O2290   1.282   1_455  A
H388        O389   0.966       .  S
O389       Ni715   1.927   1_556  S
O389       Ni391   1.892       .  S
O389       Ni396   1.901       .  S
Ni391       O708   1.955       .  S
Ni391      O2303   1.893   1_455  S
Ni391       O393   1.897       .  S
Ni391       O693   1.900       .  S
O392       C2294   1.261   1_455  A
O392       Ni715   1.881       .  S
C394        O395   1.274       .  A
O395      Ni1345   1.893       .  S
Ni396       O695   1.927       .  S
Ni396       O696   1.898       .  S
N399        C403   1.370       .  A
N399        C400   1.367       .  A
N399        C424   1.446       .  S
C400        C401   1.384       .  A
C400        C486   1.478       .  S
C401        C402   1.348       .  A
C401        H404   1.081       .  S
C402        C403   1.378       .  A
C402        H405   1.082       .  S
C403        C440   1.478       .  S
N406        C410   1.364       .  A
N406        C725   1.364       .  A
N406        C738   1.449       .  S
C407        C436   1.473       .  S
C408        C725   1.386       .  A
C408        C409   1.356       .  A
C408        H729   1.080       .  S
C409        C410   1.372       .  A
C409        H412   1.083       .  S
C410        C482   1.457       .  S
N413       C1371   1.374       .  A
N413        C414   1.363       .  A
N413       C1376   1.450       .  S
C414        C415   1.375       .  A
C414        C439   1.480       .  S
C415       C1370   1.361       .  A
C415        H418   1.074       .  S
C416       C2323   1.361       .  A
C416        C417   1.378       .  A
C416        H419   1.084       .  S
C417       N2321   1.374       .  A
C417        C500   1.480   1_655  S
C420        N421   1.373       .  A
N421        C422   1.373   1_455  A
C422       N2331   1.367       .  A
C422       N2321   1.450       .  S
N423       C1376   1.367       .  A
C424        N741   1.354       .  A
C424       N1379   1.348       .  A
N425        C738   1.362   1_655  A
N425       C2332   1.348       .  A
O426        C447   1.270       .  A
O426      Ni2340   1.927   1_455  S
O427        C436   1.267       .  A
O427       Ni450   1.914       .  S
O428       Ni432   1.926       .  S
O428       Ni450   1.895       .  S
O428       Ni444   1.932       .  S
O428        H451   0.966       .  S
C429        O446   1.269       .  A
C429        O438   1.269       .  A
O430        C436   1.268       .  A
O430       Ni449   1.925       .  S
O431        C433   1.269       .  A
O431       Ni449   1.909       .  S
Ni432      O1380   1.927       .  S
Ni432       O435   1.960       .  S
Ni432       O437   1.911       .  S
C433        O443   1.274       .  A
O434        C440   1.272       .  A
O434       Ni450   1.890       .  S
O435        C440   1.280       .  A
O437        C439   1.268       .  A
O438       Ni449   1.927       .  S
C439        O445   1.276       .  A
H441        O442   0.966       .  S
O442       Ni450   1.919       .  S
O442       Ni444   1.918       .  S
O442       Ni449   1.939       .  S
O443       Ni444   1.933       .  S
Ni444       O448   1.915       .  S
Ni444       O446   1.906       .  S
O445       Ni450   1.941       .  S
C447       O2356   1.263   1_455  A
O448       C1401   1.263       .  A
N452        C456   1.367       .  A
N452        C453   1.366       .  A
N452        C473   1.461       .  S
C453        C454   1.385       .  A
C453        C493   1.490       .  S
C454        C455   1.372       .  A
C454        H457   1.083       .  S
C455        C456   1.395       .  A
C455        H458   1.084       .  S
C456        C539   1.507       .  S
N459       C1417   1.365       .  A
N459       C1414   1.358       .  A
N459        C477   1.446       .  S
C460       N2367   1.358       .  A
C460        C461   1.368       .  A
C460        C492   1.468       .  S
C461        C462   1.358       .  A
C461        H464   1.073       .  S
C462        C463   1.382       .  A
C462        H465   1.084       .  S
C463       N2367   1.365       .  A
C463        C553   1.460       .  S
N466        C470   1.355       .  A
N466        C467   1.368       .  A
N466        C475   1.441       .  S
C467        C535   1.475       .  S
C468        C785   1.379       .  A
C468        C469   1.357       .  A
C468        H471   1.083       .  S
C469        C788   1.380       .  A
C469        H472   1.083       .  S
C473        N474   1.377       .  A
C473        N478   1.380       .  A
N474        C475   1.372       .  A
C475        N476   1.342       .  A
N476        C477   1.343       .  A
C477        N478   1.357       .  A
O479        C500   1.283       .  A
O479       Ni485   1.957       .  S
O480        C489   1.261       .  A
O480       Ni503   1.892       .  S
O481       Ni485   1.910       .  S
O481       Ni503   1.891       .  S
O481       Ni497   1.916       .  S
O481        H504   0.964       .  S
C482        O499   1.276       .  A
C482        O491   1.282       .  A
O483        C489   1.270       .  A
O483       Ni502   1.924       .  S
O484        C486   1.266       .  A
O484       Ni502   1.941       .  S
Ni485       O488   1.939       .  S
Ni485       O490   1.935       .  S
C486        O496   1.259       .  A
O487        C493   1.281       .  A
O487       Ni503   1.933       .  S
O488        C493   1.279       .  A
C489        C788   1.446       .  S
O490        C492   1.276       .  A
O491       Ni502   1.945       .  S
C492        O498   1.264       .  A
H494        O495   0.967       .  S
O495       Ni503   1.900       .  S
O495       Ni497   1.893       .  S
O495       Ni502   1.910       .  S
O496       Ni497   1.905       .  S
Ni497       O501   1.905       .  S
Ni497       O499   1.900       .  S
O498       Ni503   1.903       .  S
C500        O501   1.263       .  A
N505        C509   1.365       .  A
N505        C506   1.364       .  A
N505        C526   1.459       .  S
C506        C507   1.386       .  A
C506        C614   1.494       .  S
C507        C508   1.371       .  A
C507        H510   1.083       .  S
C508        C509   1.394       .  A
C508        H511   1.083       .  S
C509        C545   1.498       .  S
N512        C516   1.371       .  A
N512        C513   1.362       .  A
N512        C528   1.442       .  S
C513       C2422   1.367   1_455  A
C513       C2526   1.480       .  S
C514       C1467   1.367       .  A
C514        C515   1.353       .  A
C514        H517   1.062       .  S
C515       C1470   1.376       .  A
C515        H518   1.083       .  S
C516       C2423   1.376   1_455  A
C516        C542   1.467       .  S
N519        C523   1.347       .  A
N519        C520   1.366       .  A
N519        C530   1.439       .  S
C520        C521   1.384       .  A
C520        C546   1.475       .  S
C521        C840   1.358       .  A
C521        H842   1.083       .  S
C522        H525   1.083       .  S
C523        C840   1.377       .  A
C523        C950   1.436       .  S
C526        N527   1.379       .  A
C526        N531   1.375       .  A
N527        C528   1.356       .  A
C528        N529   1.343       .  A
N529        C530   1.340       .  A
C530        N531   1.372       .  A
O532        C553   1.270   1_655  A
O532       Ni538   1.934   1_655  S
O533        C542   1.271       .  A
O533       Ni556   1.904       .  S
O534       Ni538   1.884       .  S
O534       Ni874   1.890       .  S
O534       Ni550   1.898       .  S
O534        H557   0.966       .  S
C535        O544   1.280       .  A
O536        C542   1.274       .  A
O536       Ni555   1.947       .  S
O537        C539   1.271       .  A
O537       Ni555   1.903       .  S
Ni538       O541   1.934       .  S
Ni538      O2451   1.904   1_455  S
C539        O549   1.279       .  A
O540        C546   1.274       .  A
O540       Ni874   1.894       .  S
O541        C546   1.279       .  A
O543        C545   1.270       .  A
O543      Ni1492   1.904       .  S
O544      Ni1509   1.946       .  S
C545        O551   1.276       .  A
H547       O1820   0.966       .  S
O548       Ni556   1.903       .  S
O548       Ni555   1.889       .  S
O548       H2137   0.966   1_455  S
Ni550       O867   1.969       .  S
Ni550       O554   1.906       .  S
Ni550      O2460   1.889   1_455  S
Ni550       O866   1.902       .  S
O551      Ni1828   1.957       .  S
O552        C853   1.271       .  A
O552      Ni1504   1.889       .  S
C553        O554   1.272       .  A
Ni555      O2452   1.946   1_455  S
Ni556      O2141   1.957   1_455  S
N558        C562   1.354       .  A
N558        C559   1.363       .  A
N558       C1533   1.441       .  S
C559        C560   1.376       .  A
C559        C943   1.478       .  S
C560        C561   1.371       .  A
C560        H563   1.083       .  S
C561        C562   1.390       .  A
C561        H564   1.083       .  S
C562        C598   1.481       .  S
N565        C569   1.348       .  A
N565        C566   1.357       .  A
N565        C581   1.439       .  S
C566        C567   1.375       .  A
C566        C599   1.473       .  S
C567        C568   1.371       .  A
C567        H570   1.083       .  S
C568        C569   1.389       .  A
C568        H571   1.081       .  S
C569        C624   1.464       .  S
N572        C576   1.358       .  A
N572        C573   1.364       .  A
N572        C583   1.431       .  S
C573        C574   1.381       .  A
C573        C621   1.465       .  S
C574        C575   1.371       .  A
C574        H577   1.083       .  S
C575        C576   1.378       .  A
C575        H578   1.080       .  S
C576        C595   1.474       .  S
C579        N898   1.362       .  A
C579        N584   1.361       .  A
C579       N2466   1.441   1_455  S
N580        C581   1.360       .  A
N582        C899   1.359       .  A
N582        C583   1.359       .  A
C583        N584   1.362       .  A
O585        C606   1.275       .  A
O585       Ni591   1.924       .  S
O586        C595   1.253       .  A
O586       Ni609   1.875       .  S
O587       Ni591   1.908       .  S
O587       Ni609   1.891       .  S
O587       Ni603   1.904       .  S
O587        H610   0.966       .  S
C588        O605   1.273       .  A
C588        O597   1.292       .  A
O589        C595   1.286       .  A
O589       Ni608   1.989       .  S
O590        C592   1.272       .  A
O590       Ni608   1.939       .  S
Ni591       O594   1.929       .  S
Ni591       O596   1.950       .  S
C592        O602   1.277       .  A
O593        C599   1.272       .  A
O593       Ni609   1.915       .  S
O594        C599   1.276       .  A
O596        C598   1.274       .  A
O597       Ni608   1.974       .  S
C598        O604   1.260       .  A
H600        O601   0.966       .  S
O601       Ni609   1.879       .  S
O601       Ni603   1.886       .  S
O601       Ni608   1.903       .  S
O602       Ni603   1.925       .  S
Ni603       O607   1.910       .  S
Ni603       O605   1.895       .  S
O604       Ni609   1.885       .  S
C606        O607   1.268       .  A
O611        C950   1.270       .  A
O611       Ni617   1.929       .  S
O612       C1575   1.258       .  A
O612       Ni635   1.881       .  S
O613       Ni635   1.898       .  S
O613       Ni629   1.904       .  S
O613        H636   0.966       .  S
C614        O631   1.289       .  A
C614        O623   1.289       .  A
O615        C621   1.291       .  A
O615      Ni2542   1.981   1_455  S
O616       C2526   1.275       .  A
O616      Ni2542   1.951   1_455  S
Ni617       O620   1.938       .  S
Ni617       O940   1.928       .  S
Ni617       O931   1.914       .  S
C618       C1467   1.480       .  S
C618       O1570   1.275       .  A
C618        O628   1.257       .  A
O619        C625   1.277       .  A
O619       Ni635   1.921       .  S
O620        C943   1.280       .  A
C621       O2520   1.258   1_455  A
O622        C624   1.268       .  A
O623       Ni634   1.953       .  S
C624        O630   1.262       .  A
H626        O627   0.963       .  S
O627       Ni635   1.886       .  S
O627       Ni629   1.859       .  S
O627       Ni634   1.900       .  S
O628       Ni629   1.904       .  S
Ni629       O633   1.875       .  S
Ni629       O631   1.938       .  S
O630       Ni635   1.891       .  S
C632        O633   1.254       .  A
Ni634      O1569   1.981       .  S
Ni634      O1570   1.951       .  S
N637        C641   1.351       .  A
N637        C638   1.367       .  A
N637       C2570   1.445   1_455  S
C638        C639   1.390       .  A
C638        C910   1.492       .  S
C639        C640   1.367       .  A
C639        H642   1.083       .  S
C640        C641   1.373       .  A
C640        H643   1.081       .  S
C641        C705   1.463       .  S
N644        C648   1.363       .  A
N644        C645   1.366       .  A
N644        C660   1.449       .  S
C645        C646   1.397       .  A
C645        C704   1.490       .  S
C646        C647   1.355       .  A
C646        H649   1.083       .  S
C647        C648   1.375       .  A
C647        H650   1.083       .  S
C648        C924   1.464       .  S
N651        C652   1.362       .  A
N651        C658   1.456       .  S
C652        C701   1.463       .  S
C653        C654   1.363       .  A
C653        H656   1.083   1_554  S
C654        C655   1.375       .  A
C654        H657   1.083       .  S
C655        C906   1.478       .  S
C658        N659   1.374       .  A
C658        N663   1.366       .  A
N659        C660   1.372       .  A
C660        N661   1.365       .  A
N661        C662   1.344       .  A
C662        N663   1.363       .  A
C662       N1591   1.445       .  S
N664        C665   1.368       .  A
N664        C680   1.448       .  S
C665        C712   1.475       .  S
C666        C667   1.366       .  A
C666        H669   1.084       .  S
C667        C668   1.370       .  A
C667        H670   1.077       .  S
C668        C747   1.463       .  S
N671        C675   1.362       .  A
N671        C672   1.359       .  A
N671        C678   1.445       .  S
C672        C673   1.384       .  A
C672        C751   1.471       .  S
C673        C674   1.371       .  A
C673        H676   1.082       .  S
C674        C675   1.396       .  A
C674        H677   1.083       .  S
C675        C698   1.486       .  S
C678        N679   1.369       .  A
C678        N683   1.371       .  A
N679        C680   1.344       .  A
C680        N681   1.355       .  A
N681        C682   1.359       .  A
C682        N683   1.368       .  A
C682        N684   1.447       .  S
N684        C688   1.363       .  A
N684        C685   1.367       .  A
C685        C686   1.384       .  A
C685        C765   1.465       .  S
C686        C687   1.357       .  A
C686       H2597   1.083   1_455  S
C687        C688   1.376       .  A
C687        H690   1.083       .  S
C688        C694   1.477       .  S
H689       C1640   1.083       .  S
O691        C712   1.283       .  A
O692        C701   1.263       .  A
O692       Ni715   1.900       .  S
O693      Ni2605   1.913   1_456  S
O693       Ni715   1.876   1_556  S
O693        H716   0.967       .  S
C694        O711   1.269       .  A
C694        O703   1.274       .  A
O695        C701   1.268   1_556  A
O696        C698   1.273       .  A
Ni697       O700   1.943       .  S
Ni697      O1647   1.913   1_554  S
C698        O708   1.281       .  A
O699        C705   1.280       .  A
O699       Ni715   1.905       .  S
O700       C1659   1.282       .  A
O702        C704   1.277       .  A
O703       Ni714   1.932       .  S
C704       O1664   1.261       .  A
C705       O2608   1.282   1_455  A
H706        O707   0.966       .  S
O707       Ni709   1.892       .  S
O707       Ni714   1.901       .  S
Ni709      O2621   1.893   1_455  S
Ni709       O711   1.897       .  S
O710       C2612   1.261   1_455  A
C712        O713   1.274       .  A
O713      Ni1663   1.893       .  S
N717        C721   1.370       .  A
N717        C718   1.367       .  A
N717        C742   1.446       .  S
C718        C719   1.384       .  A
C718        C804   1.477       .  S
C719        C720   1.348       .  A
C719        H722   1.081       .  S
C720        C721   1.378       .  A
C720        H723   1.082       .  S
C721        C758   1.478       .  S
N724        C728   1.364       .  A
C725        C754   1.473       .  S
C726        C727   1.356       .  A
C727        C728   1.372       .  A
C727        H730   1.083       .  S
C728        C800   1.457       .  S
N731       C1689   1.374       .  A
N731        C732   1.363       .  A
N731       C1694   1.450       .  S
C732        C733   1.375       .  A
C732        C757   1.480       .  S
C733       C1688   1.361       .  A
C733        H736   1.074       .  S
C734       C2641   1.361       .  A
C734        C735   1.378       .  A
C734        H737   1.084       .  S
C735       N2639   1.374       .  A
C735        C818   1.480   1_655  S
C738        N739   1.373       .  A
N739        C740   1.373   1_455  A
C740       N2649   1.367       .  A
C740       N2639   1.450       .  S
N741       C1694   1.367       .  A
C742       N1697   1.348       .  A
N743       C2650   1.348       .  A
O744        C765   1.270       .  A
O744      Ni2658   1.927   1_455  S
O745        C754   1.267       .  A
O745       Ni768   1.914       .  S
O746       Ni750   1.926       .  S
O746       Ni768   1.895       .  S
O746       Ni762   1.932       .  S
O746        H769   0.966       .  S
C747        O764   1.269       .  A
C747        O756   1.269       .  A
O748        C754   1.268       .  A
O748       Ni767   1.925       .  S
O749        C751   1.269       .  A
O749       Ni767   1.909       .  S
Ni750      O1698   1.927       .  S
Ni750       O753   1.960       .  S
Ni750       O755   1.911       .  S
C751        O761   1.274       .  A
O752        C758   1.272       .  A
O752       Ni768   1.890       .  S
O753        C758   1.280       .  A
O755        C757   1.268       .  A
O756       Ni767   1.927       .  S
C757        O763   1.276       .  A
H759        O760   0.966       .  S
O760       Ni768   1.919       .  S
O760       Ni762   1.918       .  S
O760       Ni767   1.939       .  S
O761       Ni762   1.933       .  S
Ni762       O766   1.915       .  S
Ni762       O764   1.906       .  S
O763       Ni768   1.941       .  S
C765       O2674   1.263   1_455  A
O766       C1719   1.263       .  A
N770        C774   1.367       .  A
N770        C771   1.366       .  A
N770        C791   1.461       .  S
C771        C772   1.385       .  A
C771        C811   1.490       .  S
C772        C773   1.372       .  A
C772        H775   1.083       .  S
C773        C774   1.395       .  A
C773        H776   1.084       .  S
C774        C857   1.507       .  S
N777       C1735   1.365       .  A
N777       C1732   1.358       .  A
N777        C795   1.446       .  S
C778       N2685   1.358       .  A
C778        C779   1.368       .  A
C778        C810   1.468       .  S
C779        C780   1.358       .  A
C779        H782   1.072       .  S
C780        C781   1.382       .  A
C780        H783   1.084       .  S
C781       N2685   1.365       .  A
C781        C871   1.460       .  S
N784        C788   1.355       .  A
N784        C785   1.368       .  A
N784        C793   1.441       .  S
C785        C853   1.475       .  S
C786        C787   1.357       .  A
C786        H789   1.083       .  S
C787        H790   1.083       .  S
C791        N792   1.377       .  A
C791        N796   1.380       .  A
N792        C793   1.372       .  A
C793        N794   1.342       .  A
N794        C795   1.343       .  A
C795        N796   1.357       .  A
O797        C818   1.283       .  A
O797       Ni803   1.957       .  S
O798        C807   1.261       .  A
O798       Ni821   1.892       .  S
O799       Ni803   1.910       .  S
O799       Ni821   1.891       .  S
O799       Ni815   1.916       .  S
O799        H822   0.965       .  S
C800        O817   1.276       .  A
C800        O809   1.282       .  A
O801        C807   1.270       .  A
O801       Ni820   1.924       .  S
O802        C804   1.266       .  A
O802       Ni820   1.941       .  S
Ni803       O806   1.939       .  S
Ni803       O808   1.935       .  S
C804        O814   1.259       .  A
O805        C811   1.281       .  A
O805       Ni821   1.933       .  S
O806        C811   1.279       .  A
O808        C810   1.276       .  A
O809       Ni820   1.945       .  S
C810        O816   1.264       .  A
H812        O813   0.967       .  S
O813       Ni821   1.900       .  S
O813       Ni815   1.893       .  S
O813       Ni820   1.910       .  S
O814       Ni815   1.905       .  S
Ni815       O819   1.905       .  S
Ni815       O817   1.900       .  S
O816       Ni821   1.903       .  S
C818        O819   1.263       .  A
N823        C827   1.365       .  A
N823        C824   1.364       .  A
N823        C844   1.459       .  S
C824        C825   1.386       .  A
C824        C932   1.494       .  S
C825        C826   1.371       .  A
C825        H828   1.083       .  S
C826        C827   1.394       .  A
C826        H829   1.083       .  S
C827        C863   1.498       .  S
N830        C834   1.371       .  A
N830        C831   1.362       .  A
N830        C846   1.442       .  S
C831       C2740   1.367   1_455  A
C831       C2844   1.480       .  S
C832       C1785   1.367       .  A
C832        C833   1.353       .  A
C832        H835   1.062       .  S
C833       C1788   1.376       .  A
C833        H836   1.083       .  S
C834       C2741   1.376   1_455  A
C834        C860   1.467       .  S
N837        C841   1.347   1_565  A
N837        C838   1.366   1_565  A
N837        C848   1.439       .  S
C838        C839   1.384       .  A
C838        C864   1.475   1_545  S
C840        H843   1.083       .  S
C844        N845   1.379       .  A
C844        N849   1.375       .  A
N845        C846   1.356       .  A
C846        N847   1.343       .  A
N847        C848   1.340       .  A
C848        N849   1.372       .  A
O850        C871   1.270   1_655  A
O850       Ni856   1.934   1_655  S
O851        C860   1.271       .  A
O851       Ni874   1.904       .  S
O852       Ni856   1.884       .  S
O852       Ni868   1.898       .  S
O852        H875   0.966       .  S
C853        O862   1.280       .  A
O854        C860   1.274       .  A
O854       Ni873   1.947       .  S
O855        C857   1.271       .  A
O855       Ni873   1.903       .  S
Ni856       O859   1.934       .  S
Ni856      O2769   1.904   1_455  S
C857        O867   1.279       .  A
O858        C864   1.274   1_545  A
O859        C864   1.279       .  A
O861        C863   1.270       .  A
O861      Ni1810   1.904       .  S
O862      Ni1827   1.946       .  S
C863        O869   1.276       .  A
H865       O1184   0.966       .  S
O866       Ni874   1.903       .  S
O866       Ni873   1.889       .  S
O866       H2455   0.966   1_455  S
Ni868       O872   1.906       .  S
Ni868      O2778   1.889   1_455  S
O869      Ni1192   1.957   1_565  S
O870      Ni1822   1.889       .  S
C871        O872   1.272       .  A
Ni873      O2770   1.946   1_455  S
Ni874      O2459   1.957   1_455  S
N876        C880   1.354   1_545  A
N876        C877   1.363       .  A
N876       C1851   1.441       .  S
C877        C878   1.376       .  A
C878        C879   1.371       .  A
C878        H881   1.083       .  S
C879        C880   1.390   1_545  A
C879        H882   1.083       .  S
C880        C916   1.481       .  S
N883        C887   1.348       .  A
N883        C884   1.357       .  A
N883        C899   1.439       .  S
C884        C885   1.375       .  A
C884        C917   1.473       .  S
C885        C886   1.371       .  A
C885        H888   1.083       .  S
C886        C887   1.389       .  A
C886        H889   1.081       .  S
C887        C942   1.464       .  S
N890        C894   1.358       .  A
N890        C891   1.364       .  A
N890        C901   1.431       .  S
C891        C892   1.381       .  A
C891        C939   1.465       .  S
C892        C893   1.371       .  A
C892        H895   1.083       .  S
C893        C894   1.378       .  A
C893        H896   1.080       .  S
C894        C913   1.474       .  S
C897        N902   1.361   1_545  A
C897       N2784   1.441   1_455  S
N898        C899   1.360       .  A
N900        C901   1.359   1_545  A
C901        N902   1.362       .  A
O903        C924   1.275       .  A
O903       Ni909   1.924       .  S
O904        C913   1.253       .  A
O904       Ni927   1.875       .  S
O905       Ni909   1.908       .  S
O905       Ni927   1.891       .  S
O905       Ni921   1.904       .  S
O905        H928   0.966       .  S
C906        O923   1.273       .  A
C906        O915   1.292       .  A
O907        C913   1.286       .  A
O907       Ni926   1.989       .  S
O908        C910   1.272       .  A
O908       Ni926   1.939       .  S
Ni909       O912   1.929       .  S
Ni909       O914   1.950       .  S
C910        O920   1.277       .  A
O911        C917   1.272       .  A
O911       Ni927   1.915       .  S
O912        C917   1.276       .  A
O914        C916   1.274       .  A
O915       Ni926   1.974       .  S
C916        O922   1.260       .  A
H918        O919   0.966       .  S
O919       Ni927   1.879       .  S
O919       Ni921   1.886       .  S
O919       Ni926   1.903       .  S
O920       Ni921   1.925       .  S
Ni921       O925   1.910       .  S
Ni921       O923   1.895       .  S
O922       Ni927   1.885       .  S
C924        O925   1.268       .  A
O929       Ni935   1.929       .  S
O930       C1893   1.258       .  A
O930       Ni953   1.881       .  S
O931       Ni953   1.898       .  S
O931       Ni947   1.904       .  S
O931        H954   0.966       .  S
C932        O949   1.289       .  A
C932        O941   1.289       .  A
O933        C939   1.291       .  A
O933      Ni2860   1.981   1_455  S
O934       C2844   1.275       .  A
O934      Ni2860   1.952   1_455  S
Ni935       O938   1.938       .  S
C936       C1785   1.480       .  S
C936       O1888   1.275       .  A
C936        O946   1.257       .  A
O937        C943   1.277       .  A
O937       Ni953   1.921       .  S
C939       O2838   1.258   1_455  A
O940        C942   1.268       .  A
O941       Ni952   1.953       .  S
C942        O948   1.262       .  A
H944        O945   0.963       .  S
O945       Ni953   1.886       .  S
O945       Ni947   1.859       .  S
O945       Ni952   1.900       .  S
O946       Ni947   1.904       .  S
Ni947       O951   1.875       .  S
Ni947       O949   1.938       .  S
O948       Ni953   1.891       .  S
C950        O951   1.254       .  A
Ni952      O1887   1.981       .  S
Ni952      O1888   1.951       .  S
N955        C959   1.351       .  A
N955        C956   1.367       .  A
C956        C957   1.390       .  A
C956       C1228   1.492       .  S
C957        C958   1.367       .  A
C957        H960   1.083       .  S
C958        C959   1.373       .  A
C958        H961   1.081       .  S
C959       C1023   1.463       .  S
N962        C966   1.363       .  A
N962        C963   1.366       .  A
N962        C978   1.449       .  S
C963        C964   1.397       .  A
C963       C1022   1.490       .  S
C964        C965   1.355       .  A
C964        H967   1.083       .  S
C965        C966   1.375       .  A
C965        H968   1.083       .  S
C966       C1242   1.464       .  S
N969       C1609   1.366   1_545  A
N969        C970   1.362       .  A
N969        C976   1.456       .  S
C970       C1607   1.385   1_545  A
C970       C1019   1.463       .  S
C971       C1288   1.385       .  A
C971        C972   1.363       .  A
C971        H974   1.083   1_554  S
C972        C973   1.375       .  A
C972        H975   1.083       .  S
C973       N1287   1.366       .  A
C973       C1224   1.478       .  S
C976        N977   1.374       .  A
C976        N981   1.366       .  A
N977        C978   1.372       .  A
C978        N979   1.365       .  A
N979        C980   1.344       .  A
C980        N981   1.363       .  A
C980       N1909   1.445       .  S
N982       C1304   1.353       .  A
N982        C983   1.368       .  A
N982        C998   1.448       .  S
C983       C1302   1.387       .  A
C983       C1030   1.475       .  S
C984       C1619   1.387   1_545  A
C984        C985   1.366       .  A
C984        H987   1.084       .  S
C985        C986   1.370   1_545  A
C985        H988   1.077       .  S
C986       N1618   1.353       .  A
C986       C1065   1.463   1_565  S
N989        C993   1.362       .  A
N989        C990   1.359       .  A
N989        C996   1.445       .  S
C990        C991   1.384       .  A
C990       C1069   1.471       .  S
C991        C992   1.371       .  A
C991        H994   1.082       .  S
C992        C993   1.396       .  A
C992        H995   1.083       .  S
C993       C1016   1.486       .  S
C996        N997   1.369       .  A
C996       N1001   1.371       .  A
N997        C998   1.344       .  A
C998        N999   1.355       .  A
N999       C1000   1.359       .  A
C1000      N1001   1.368       .  A
C1000      N1002   1.447       .  S
N1002      C1006   1.363       .  A
N1002      C1003   1.367       .  A
C1003      C1004   1.384       .  A
C1003      C1083   1.465       .  S
C1004      C1005   1.357       .  A
C1005      C1006   1.376       .  A
C1005      H1008   1.083       .  S
C1006      C1012   1.477       .  S
H1007      C1958   1.083       .  S
O1009      C1030   1.283       .  A
O1009     Ni1333   1.955   1_556  S
O1010      C1019   1.263       .  A
O1010     Ni1033   1.900       .  S
O1011     Ni1033   1.876   1_566  S
O1011     Ni1663   1.900       .  S
O1011      H1034   0.967   1_565  S
C1012      O1029   1.269       .  A
C1012      O1021   1.274       .  A
O1013      C1019   1.268   1_556  A
O1013     Ni1668   1.927   1_545  S
O1014      C1016   1.273       .  A
O1014     Ni1668   1.898   1_545  S
Ni1015     O1645   1.955   1_554  S
Ni1015     O1018   1.943       .  S
Ni1015     O1656   1.950       .  S
Ni1015     O1965   1.913   1_554  S
C1016      O1026   1.281       .  A
O1017      C1023   1.280       .  A
O1017     Ni1033   1.905       .  S
O1018      C1977   1.282   1_565  A
O1020      C1022   1.277       .  A
O1020     Ni1333   1.950       .  S
O1021     Ni1032   1.932       .  S
C1022      O1982   1.261       .  A
H1024      O1025   0.966       .  S
O1025     Ni1351   1.927   1_556  S
O1025     Ni1027   1.892       .  S
O1025     Ni1032   1.901       .  S
O1026     Ni1663   1.955   1_545  S
Ni1027     O1344   1.955       .  S
Ni1027     O1029   1.897       .  S
Ni1027     O1329   1.900       .  S
O1028     Ni1351   1.881       .  S
C1030      O1031   1.274       .  A
O1031     Ni1981   1.893       .  S
Ni1032     O1331   1.927       .  S
Ni1032     O1332   1.898       .  S
Ni1033     O1664   1.881   1_545  S
Ni1033     O1661   1.927   1_544  S
N1035      C1039   1.370       .  A
N1035      C1036   1.367       .  A
N1035      C1060   1.446       .  S
C1036      C1037   1.384       .  A
C1036      C1122   1.477       .  S
C1037      C1038   1.348       .  A
C1037      H1040   1.081       .  S
C1038      C1039   1.378       .  A
C1038      H1041   1.082       .  S
C1039      C1076   1.478       .  S
N1042      C1046   1.364       .  A
N1042      C1361   1.364       .  A
N1042      C1374   1.449       .  S
C1043      N1678   1.364       .  A
C1043      C1680   1.386       .  A
C1043      C1072   1.473   1_565  S
C1044      C1361   1.386       .  A
C1044      C1045   1.356       .  A
C1044      H1365   1.080       .  S
C1045      C1046   1.372       .  A
C1045      H1048   1.083       .  S
C1046      C1118   1.457       .  S
H1047      C1680   1.080       .  S
N1049      C2007   1.374       .  A
N1049      C1050   1.363       .  A
N1049      C2012   1.450       .  S
C1050      C1051   1.375       .  A
C1050      C1075   1.480       .  S
C1051      C2006   1.361       .  A
C1051      H1054   1.074       .  S
C1052      C1053   1.378       .  A
C1052      H1055   1.084       .  S
C1053      C1136   1.480       .  S
C1056      N1057   1.373   1_565  A
C1056      N1697   1.362       .  A
C1056      N1678   1.449       .  S
N1057      C1058   1.373       .  A
N1059      C2012   1.367   1_565  A
N1059      C1696   1.354       .  A
C1060      N1377   1.354       .  A
C1060      N2015   1.348       .  A
N1061      C1374   1.362       .  A
O1062      C1083   1.270       .  A
O1063      C1072   1.267       .  A
O1063     Ni1086   1.914       .  S
O1064     Ni1068   1.926       .  S
O1064     Ni1086   1.895       .  S
O1064     Ni1080   1.932       .  S
O1064      H1087   0.966       .  S
C1065      O1082   1.269       .  A
C1065      O1074   1.269       .  A
O1066      C1072   1.268       .  A
O1066     Ni1085   1.925       .  S
O1067      C1069   1.269       .  A
O1067     Ni1085   1.909       .  S
Ni1068     O2016   1.927       .  S
Ni1068     O1071   1.960       .  S
Ni1068     O1073   1.911       .  S
C1069      O1079   1.274       .  A
O1070      C1076   1.272       .  A
O1070     Ni1086   1.890       .  S
O1071      C1076   1.280       .  A
O1073      C1075   1.268       .  A
O1074     Ni1085   1.927       .  S
C1075      O1081   1.276       .  A
H1077      O1078   0.966       .  S
O1078     Ni1086   1.919       .  S
O1078     Ni1080   1.918       .  S
O1078     Ni1085   1.939       .  S
O1079     Ni1080   1.933       .  S
Ni1080     O1084   1.915       .  S
Ni1080     O1082   1.906       .  S
O1081     Ni1086   1.941       .  S
O1084      C2037   1.263       .  A
N1088      C1092   1.367       .  A
N1088      C1089   1.366       .  A
N1088      C1109   1.461       .  S
C1089      C1090   1.385       .  A
C1089      C1129   1.490       .  S
C1090      C1091   1.372       .  A
C1090      H1093   1.083       .  S
C1091      C1092   1.395       .  A
C1091      H1094   1.084       .  S
C1092      C1175   1.507       .  S
N1095      C2053   1.365       .  A
N1095      C2050   1.358       .  A
N1095      C1113   1.446       .  S
C1096      C1097   1.368       .  A
C1096      C1128   1.468       .  S
C1097      C1098   1.358       .  A
C1097      H1100   1.073       .  S
C1098      C1099   1.382       .  A
C1098      H1101   1.084       .  S
C1099      C1189   1.460       .  S
N1102      C1106   1.355       .  A
N1102      C1103   1.368       .  A
N1102      C1111   1.441       .  S
C1103      C1740   1.379   1_545  A
C1103      C1171   1.475       .  S
C1104      C1421   1.379       .  A
C1104      C1105   1.357       .  A
C1104      H1107   1.083       .  S
C1105      C1424   1.380       .  A
C1105      H1108   1.083       .  S
C1106      C1741   1.380   1_545  A
C1106      C1761   1.446   1_545  S
C1109      N1110   1.377       .  A
C1109      N1114   1.380       .  A
N1110      C1111   1.372       .  A
C1111      N1112   1.342       .  A
N1112      C1113   1.343       .  A
C1113      N1114   1.357       .  A
O1115      C1136   1.283       .  A
O1115     Ni1121   1.957       .  S
O1116      C1125   1.261       .  A
O1116     Ni1139   1.892       .  S
O1117     Ni1121   1.910       .  S
O1117     Ni1139   1.891       .  S
O1117     Ni1133   1.916       .  S
O1117      H1140   0.964       .  S
C1118      O1135   1.276       .  A
C1118      O1127   1.282       .  A
O1119      C1125   1.270       .  A
O1119     Ni1138   1.924       .  S
O1120      C1122   1.266       .  A
O1120     Ni1138   1.941       .  S
Ni1121     O1124   1.939       .  S
Ni1121     O1126   1.935       .  S
C1122      O1132   1.259       .  A
O1123      C1129   1.281       .  A
O1123     Ni1139   1.933       .  S
O1124      C1129   1.279       .  A
C1125      C1424   1.446       .  S
O1126      C1128   1.276       .  A
O1127     Ni1138   1.945       .  S
C1128      O1134   1.264       .  A
H1130      O1131   0.967       .  S
O1131     Ni1139   1.900       .  S
O1131     Ni1133   1.893       .  S
O1131     Ni1138   1.910       .  S
O1132     Ni1133   1.905       .  S
Ni1133     O1137   1.905       .  S
Ni1133     O1135   1.900       .  S
O1134     Ni1139   1.903       .  S
C1136      O1137   1.263       .  A
N1141      C1145   1.365       .  A
N1141      C1142   1.364       .  A
N1141      C1162   1.459       .  S
C1142      C1143   1.386       .  A
C1142      C1250   1.494       .  S
C1143      C1144   1.371       .  A
C1143      H1146   1.083       .  S
C1144      C1145   1.394       .  A
C1144      H1147   1.083       .  S
C1145      C1181   1.498       .  S
N1148      C1152   1.371       .  A
N1148      C1149   1.362       .  A
N1148      C1164   1.442       .  S
C1150      C2103   1.367       .  A
C1150      C1151   1.353       .  A
C1150      H1153   1.062       .  S
C1151      C2106   1.376       .  A
C1151      H1154   1.083       .  S
C1152      C1178   1.467       .  S
N1155      C1159   1.347       .  A
N1155      C1156   1.366       .  A
N1155      C1166   1.439       .  S
C1156      C1157   1.384       .  A
C1156      C1182   1.475       .  S
C1157      C1476   1.358       .  A
C1157      H1478   1.083       .  S
C1158      C1793   1.358       .  A
C1158      C1795   1.377       .  A
C1158      H1161   1.083       .  S
C1159      C1476   1.377       .  A
C1159      C1586   1.436       .  S
H1160      C1793   1.083       .  S
C1162      N1163   1.379       .  A
C1162      N1167   1.375       .  A
N1163      C1164   1.356       .  A
C1164      N1165   1.343       .  A
N1165      C1166   1.340       .  A
C1166      N1167   1.372       .  A
O1168      C1189   1.270       .  A
O1168     Ni1174   1.934       .  S
O1169      C1178   1.271       .  A
O1169     Ni1192   1.904       .  S
O1170     Ni1174   1.884       .  S
O1170     Ni1510   1.890       .  S
O1170     Ni1186   1.898       .  S
O1170      H1193   0.966       .  S
C1171      O1824   1.271   1_545  A
C1171      O1180   1.280       .  A
O1172      C1178   1.274       .  A
O1172     Ni1191   1.947       .  S
O1173      C1175   1.271       .  A
O1173     Ni1191   1.903       .  S
Ni1174     O1177   1.934       .  S
C1175      O1185   1.279       .  A
O1176      C1182   1.274       .  A
O1176     Ni1510   1.894       .  S
O1177      C1182   1.279       .  A
O1179      C1181   1.270       .  A
O1179     Ni2128   1.904       .  S
O1180     Ni2145   1.946       .  S
C1181      O1187   1.276       .  A
H1183      O2456   0.966       .  S
O1184     Ni1192   1.903       .  S
O1184     Ni1822   1.902   1_545  S
O1184     Ni1191   1.889       .  S
O1185     Ni1822   1.969   1_545  S
Ni1186     O1503   1.969       .  S
Ni1186     O1190   1.906       .  S
Ni1186     O1502   1.902       .  S
O1187     Ni2464   1.957       .  S
O1188      C1489   1.271       .  A
O1188     Ni2140   1.889       .  S
C1189      O1190   1.272       .  A
Ni1192     O1812   1.894       .  S
Ni1192     O1806   1.890   1_545  S
N1194      C1198   1.354       .  A
N1194      C1195   1.363       .  A
N1194      C2169   1.441       .  S
C1195      C1196   1.376       .  A
C1195      C1579   1.478       .  S
C1196      C1197   1.371       .  A
C1196      H1199   1.083       .  S
C1197      C1198   1.390       .  A
C1197      H1200   1.083       .  S
C1198      C1234   1.481       .  S
N1201      C1205   1.348       .  A
N1201      C1202   1.357       .  A
N1201      C1217   1.439       .  S
C1202      C1203   1.375       .  A
C1202      C1235   1.473       .  S
C1203      C1204   1.371       .  A
C1203      H1206   1.083       .  S
C1204      C1205   1.389       .  A
C1204      H1207   1.081       .  S
C1205      C1260   1.464       .  S
N1208      C1212   1.358       .  A
N1208      C1209   1.364       .  A
N1208      C1219   1.431       .  S
C1209      C1210   1.381       .  A
C1209      C1257   1.465       .  S
C1210      C1211   1.371       .  A
C1210      H1213   1.083       .  S
C1211      C1212   1.378       .  A
C1211      H1214   1.080       .  S
C1212      C1231   1.474       .  S
C1215      N1534   1.362       .  A
C1215      N1220   1.361       .  A
N1216      C1851   1.362       .  A
N1216      C1217   1.360       .  A
C1217      N1854   1.359       .  A
N1218      C1535   1.359       .  A
N1218      C1219   1.359       .  A
C1219      N1220   1.362       .  A
O1221      C1242   1.275       .  A
O1221     Ni1227   1.924       .  S
O1222      C1231   1.253       .  A
O1222     Ni1245   1.875       .  S
O1223     Ni1227   1.908       .  S
O1223     Ni1245   1.891       .  S
O1223     Ni1239   1.904       .  S
O1223      H1246   0.966       .  S
C1224      O1241   1.273       .  A
C1224      O1233   1.292       .  A
O1225      C1231   1.286       .  A
O1225     Ni1244   1.989       .  S
O1226      C1228   1.272       .  A
O1226     Ni1244   1.939       .  S
Ni1227     O1230   1.929       .  S
Ni1227     O1232   1.950       .  S
C1228      O1238   1.277       .  A
O1229      C1235   1.272       .  A
O1229     Ni1245   1.915       .  S
O1230      C1235   1.276       .  A
O1232      C1234   1.274       .  A
O1233     Ni1244   1.974       .  S
C1234      O1240   1.260       .  A
H1236      O1237   0.966       .  S
O1237     Ni1245   1.879       .  S
O1237     Ni1239   1.886       .  S
O1237     Ni1244   1.903       .  S
O1238     Ni1239   1.925       .  S
Ni1239     O1243   1.910       .  S
Ni1239     O1241   1.895       .  S
O1240     Ni1245   1.885       .  S
C1242      O1243   1.268       .  A
O1247      C1586   1.270       .  A
O1247     Ni1253   1.929       .  S
O1248      C2211   1.258       .  A
O1248     Ni1271   1.881       .  S
O1249     Ni1889   1.914       .  S
O1249     Ni1271   1.898       .  S
O1249     Ni1265   1.904       .  S
O1249      H1272   0.966       .  S
C1250      O1267   1.289       .  A
C1250      O1259   1.289       .  A
O1251      C1257   1.291       .  A
Ni1253     O1256   1.938       .  S
Ni1253     O1576   1.928       .  S
Ni1253     O1567   1.914       .  S
C1254      C2103   1.480       .  S
C1254      O2206   1.275       .  A
C1254      O1264   1.257       .  A
O1255      C1261   1.277       .  A
O1255     Ni1271   1.921       .  S
O1256      C1579   1.280       .  A
O1258      C1260   1.268       .  A
O1258     Ni1889   1.928       .  S
O1259     Ni1270   1.953       .  S
C1260      O1266   1.262       .  A
C1261      C1831   1.478       .  S
C1261      O1892   1.280       .  A
H1262      O1263   0.963       .  S
O1263     Ni1271   1.886       .  S
O1263     Ni1265   1.859       .  S
O1263     Ni1270   1.900       .  S
O1264     Ni1265   1.904       .  S
Ni1265     O1269   1.875       .  S
Ni1265     O1267   1.938       .  S
O1266     Ni1271   1.891       .  S
C1268      C1795   1.436       .  S
C1268      O1883   1.270       .  A
C1268      O1269   1.254       .  A
Ni1270     O2205   1.981       .  S
Ni1270     O2206   1.951       .  S
N1273      C1277   1.351       .  A
N1273      C1274   1.367       .  A
C1274      C1275   1.390       .  A
C1274      C1546   1.492       .  S
C1275      C1276   1.367       .  A
C1275      H1278   1.083       .  S
C1276      C1277   1.373       .  A
C1276      H1279   1.081       .  S
C1277      C1341   1.463       .  S
N1280      C1284   1.363       .  A
N1280      C1281   1.366       .  A
N1280      C1296   1.449       .  S
C1281      C1282   1.397       .  A
C1281      C1340   1.490       .  S
C1282      C1283   1.355       .  A
C1282      H1285   1.083       .  S
C1283      C1284   1.375       .  A
C1283      H1286   1.083       .  S
C1284      C1560   1.464       .  S
N1287      C1288   1.362       .  A
N1287      C1294   1.456       .  S
C1288      C1337   1.463       .  S
C1289      C1606   1.385       .  A
C1289      C1290   1.363       .  A
C1289      H1292   1.083   1_554  S
C1290      C1291   1.375       .  A
C1290      H1293   1.083       .  S
C1291      N1605   1.366       .  A
C1291      C1542   1.478       .  S
C1294      N1295   1.374       .  A
C1294      N1299   1.366       .  A
N1295      C1296   1.372       .  A
C1296      N1297   1.365       .  A
N1297      C1298   1.344       .  A
C1298      N1299   1.363       .  A
C1298      N2227   1.445       .  S
N1300      C1622   1.353       .  A
N1300      C1301   1.368       .  A
N1300      C1316   1.448       .  S
C1301      C1620   1.387       .  A
C1301      C1348   1.475       .  S
C1302      C1303   1.366       .  A
C1302      H1305   1.084       .  S
C1303      C1304   1.370       .  A
C1303      H1306   1.077       .  S
C1304      C1383   1.463       .  S
N1307      C1311   1.362       .  A
N1307      C1308   1.359       .  A
N1307      C1314   1.445       .  S
C1308      C1309   1.384       .  A
C1308      C1387   1.471       .  S
C1309      C1310   1.371       .  A
C1309      H1312   1.082       .  S
C1310      C1311   1.396       .  A
C1310      H1313   1.083       .  S
C1311      C1334   1.486       .  S
C1314      N1315   1.369       .  A
C1314      N1319   1.371       .  A
N1315      C1316   1.344       .  A
C1316      N1317   1.355       .  A
N1317      C1318   1.359       .  A
C1318      N1319   1.368       .  A
C1318      N1320   1.447       .  S
N1320      C1324   1.363       .  A
N1320      C1321   1.367       .  A
C1321      C1322   1.384       .  A
C1321      C1401   1.465       .  S
C1322      C1323   1.357       .  A
C1323      C1324   1.376       .  A
C1323      H1326   1.083       .  S
C1324      C1330   1.477       .  S
H1325      C2276   1.083       .  S
O1327      C1348   1.283       .  A
O1327     Ni1651   1.955   1_556  S
O1328      C1337   1.263       .  A
O1328     Ni1351   1.900       .  S
O1329     Ni1351   1.876   1_556  S
O1329      H1352   0.967       .  S
C1330      O1347   1.269       .  A
C1330      O1339   1.274       .  A
O1331      C1337   1.268   1_556  A
O1332      C1334   1.273       .  A
Ni1333     O1336   1.943       .  S
Ni1333     O2283   1.913   1_554  S
C1334      O1344   1.281       .  A
O1335      C1341   1.280       .  A
O1335     Ni1351   1.905       .  S
O1336      C2295   1.282       .  A
O1338      C1340   1.277       .  A
O1338     Ni1651   1.950       .  S
O1339     Ni1350   1.932       .  S
C1340      O2300   1.261       .  A
H1342      O1343   0.966       .  S
O1343     Ni1669   1.927   1_556  S
O1343     Ni1345   1.892       .  S
O1343     Ni1350   1.901       .  S
Ni1345     O1662   1.955       .  S
Ni1345     O1347   1.897       .  S
Ni1345     O1647   1.900       .  S
O1346     Ni1669   1.881       .  S
C1348      O1349   1.274       .  A
O1349     Ni2299   1.893       .  S
Ni1350     O1649   1.927       .  S
Ni1350     O1650   1.898       .  S
N1353      C1357   1.370       .  A
N1353      C1354   1.367       .  A
N1353      C1378   1.446       .  S
C1354      C1355   1.384       .  A
C1354      C1440   1.478       .  S
C1355      C1356   1.348       .  A
C1355      H1358   1.081       .  S
C1356      C1357   1.378       .  A
C1356      H1359   1.082       .  S
C1357      C1394   1.478       .  S
N1360      C1364   1.364       .  A
N1360      C1679   1.364       .  A
N1360      C1692   1.449       .  S
C1361      C1390   1.473       .  S
C1362      C1679   1.386       .  A
C1362      C1363   1.356       .  A
C1362      H1683   1.080       .  S
C1363      C1364   1.372       .  A
C1363      H1366   1.083       .  S
C1364      C1436   1.457       .  S
N1367      C2325   1.374       .  A
N1367      C1368   1.363       .  A
N1367      C2330   1.450       .  S
C1368      C1369   1.375       .  A
C1368      C1393   1.480       .  S
C1369      C2324   1.361       .  A
C1369      H1372   1.074       .  S
C1370      C1371   1.378       .  A
C1370      H1373   1.084       .  S
C1371      C1454   1.480       .  S
C1374      N1375   1.373       .  A
N1375      C1376   1.373       .  A
N1377      C2330   1.367       .  A
C1378      N1695   1.354       .  A
C1378      N2333   1.348       .  A
N1379      C1692   1.362       .  A
O1380      C1401   1.270       .  A
O1381      C1390   1.267       .  A
O1381     Ni1404   1.914       .  S
O1382     Ni1386   1.926       .  S
O1382     Ni1404   1.895       .  S
O1382     Ni1398   1.932       .  S
O1382      H1405   0.966       .  S
C1383      O1400   1.269       .  A
C1383      O1392   1.269       .  A
O1384      C1390   1.268       .  A
O1384     Ni1403   1.925       .  S
O1385      C1387   1.269       .  A
O1385     Ni1403   1.909       .  S
Ni1386     O2334   1.927       .  S
Ni1386     O1389   1.960       .  S
Ni1386     O1391   1.911       .  S
C1387      O1397   1.274       .  A
O1388      C1394   1.272       .  A
O1388     Ni1404   1.890       .  S
O1389      C1394   1.280       .  A
O1391      C1393   1.268       .  A
O1392     Ni1403   1.927       .  S
C1393      O1399   1.276       .  A
H1395      O1396   0.966       .  S
O1396     Ni1404   1.919       .  S
O1396     Ni1398   1.918       .  S
O1396     Ni1403   1.939       .  S
O1397     Ni1398   1.933       .  S
Ni1398     O1402   1.915       .  S
Ni1398     O1400   1.906       .  S
O1399     Ni1404   1.941       .  S
O1402      C2355   1.263       .  A
N1406      C1410   1.367       .  A
N1406      C1407   1.366       .  A
N1406      C1427   1.461       .  S
C1407      C1408   1.385       .  A
C1407      C1447   1.490       .  S
C1408      C1409   1.372       .  A
C1408      H1411   1.083       .  S
C1409      C1410   1.395       .  A
C1409      H1412   1.084       .  S
C1410      C1493   1.507       .  S
N1413      C2371   1.365       .  A
N1413      C2368   1.358       .  A
N1413      C1431   1.446       .  S
C1414      C1415   1.368       .  A
C1414      C1446   1.468       .  S
C1415      C1416   1.358       .  A
C1415      H1418   1.073       .  S
C1416      C1417   1.382       .  A
C1416      H1419   1.084       .  S
C1417      C1507   1.460       .  S
N1420      C1424   1.355       .  A
N1420      C1421   1.368       .  A
N1420      C1429   1.441       .  S
C1421      C1489   1.475       .  S
C1422      C1739   1.379       .  A
C1422      C1423   1.357       .  A
C1422      H1425   1.083       .  S
C1423      C1742   1.380       .  A
C1423      H1426   1.083       .  S
C1427      N1428   1.377       .  A
C1427      N1432   1.380       .  A
N1428      C1429   1.372       .  A
C1429      N1430   1.342       .  A
N1430      C1431   1.343       .  A
C1431      N1432   1.357       .  A
O1433      C1454   1.283       .  A
O1433     Ni1439   1.957       .  S
O1434      C1443   1.261       .  A
O1434     Ni1457   1.892       .  S
O1435     Ni1439   1.910       .  S
O1435     Ni1457   1.891       .  S
O1435     Ni1451   1.916       .  S
O1435      H1458   0.964       .  S
C1436      O1453   1.276       .  A
C1436      O1445   1.282       .  A
O1437      C1443   1.270       .  A
O1437     Ni1456   1.924       .  S
O1438      C1440   1.266       .  A
O1438     Ni1456   1.941       .  S
Ni1439     O1442   1.939       .  S
Ni1439     O1444   1.935       .  S
C1440      O1450   1.259       .  A
O1441      C1447   1.281       .  A
O1441     Ni1457   1.933       .  S
O1442      C1447   1.279       .  A
C1443      C1742   1.446       .  S
O1444      C1446   1.276       .  A
O1445     Ni1456   1.945       .  S
C1446      O1452   1.264       .  A
H1448      O1449   0.967       .  S
O1449     Ni1457   1.900       .  S
O1449     Ni1451   1.893       .  S
O1449     Ni1456   1.910       .  S
O1450     Ni1451   1.905       .  S
Ni1451     O1455   1.905       .  S
Ni1451     O1453   1.900       .  S
O1452     Ni1457   1.903       .  S
C1454      O1455   1.263       .  A
N1459      C1463   1.365       .  A
N1459      C1460   1.364       .  A
N1459      C1480   1.459       .  S
C1460      C1461   1.386       .  A
C1460      C1568   1.494       .  S
C1461      C1462   1.371       .  A
C1461      H1464   1.083       .  S
C1462      C1463   1.394       .  A
C1462      H1465   1.083       .  S
C1463      C1499   1.498       .  S
N1466      C1470   1.371       .  A
N1466      C1467   1.362       .  A
N1466      C1482   1.442       .  S
C1468      C2421   1.367       .  A
C1468      C1469   1.353       .  A
C1468      H1471   1.062       .  S
C1469      C2424   1.376       .  A
C1469      H1472   1.083       .  S
C1470      C1496   1.467       .  S
N1473      C1477   1.347       .  A
N1473      C1474   1.366       .  A
N1473      C1484   1.439       .  S
C1474      C1475   1.384       .  A
C1474      C1500   1.475       .  S
C1475      C1794   1.358       .  A
C1475      H1796   1.083       .  S
C1476      H1479   1.083       .  S
C1477      C1794   1.377       .  A
C1477      C1904   1.436       .  S
C1480      N1481   1.379       .  A
C1480      N1485   1.375       .  A
N1481      C1482   1.356       .  A
C1482      N1483   1.343       .  A
N1483      C1484   1.340       .  A
C1484      N1485   1.372       .  A
O1486      C1507   1.270       .  A
O1486     Ni1492   1.934       .  S
O1487      C1496   1.271       .  A
O1487     Ni1510   1.904       .  S
O1488     Ni1492   1.884       .  S
O1488     Ni1828   1.890       .  S
O1488     Ni1504   1.898       .  S
O1488      H1511   0.966       .  S
C1489      O1498   1.280       .  A
O1490      C1496   1.274       .  A
O1490     Ni1509   1.947       .  S
O1491      C1493   1.271       .  A
O1491     Ni1509   1.903       .  S
Ni1492     O1495   1.934       .  S
C1493      O1503   1.279       .  A
O1494      C1500   1.274       .  A
O1494     Ni1828   1.894       .  S
O1495      C1500   1.279       .  A
O1497      C1499   1.270       .  A
O1497     Ni2446   1.904       .  S
O1498     Ni2463   1.946       .  S
C1499      O1505   1.276       .  A
H1501      O2774   0.966       .  S
O1502     Ni1510   1.903       .  S
O1502     Ni1509   1.889       .  S
Ni1504     O1821   1.969       .  S
Ni1504     O1508   1.906       .  S
Ni1504     O1820   1.902       .  S
O1505     Ni2782   1.957       .  S
O1506      C1807   1.271       .  A
O1506     Ni2458   1.889       .  S
C1507      O1508   1.272       .  A
N1512      C1516   1.354       .  A
N1512      C1513   1.363       .  A
N1512      C2487   1.441       .  S
C1513      C1514   1.376       .  A
C1513      C1897   1.478       .  S
C1514      C1515   1.371       .  A
C1514      H1517   1.083       .  S
C1515      C1516   1.390       .  A
C1515      H1518   1.083       .  S
C1516      C1552   1.481       .  S
N1519      C1523   1.348       .  A
N1519      C1520   1.357       .  A
N1519      C1535   1.439       .  S
C1520      C1521   1.375       .  A
C1520      C1553   1.473       .  S
C1521      C1522   1.371       .  A
C1521      H1524   1.083       .  S
C1522      C1523   1.389       .  A
C1522      H1525   1.081       .  S
C1523      C1578   1.464       .  S
N1526      C1530   1.358       .  A
N1526      C1527   1.364       .  A
N1526      C1537   1.431       .  S
C1527      C1528   1.381       .  A
C1527      C1575   1.465       .  S
C1528      C1529   1.371       .  A
C1528      H1531   1.083       .  S
C1529      C1530   1.378       .  A
C1529      H1532   1.080       .  S
C1530      C1549   1.474       .  S
C1533      N1852   1.362       .  A
C1533      N1538   1.361       .  A
N1534      C1535   1.360       .  A
N1536      C1853   1.359       .  A
N1536      C1537   1.359       .  A
C1537      N1538   1.362       .  A
O1539      C1560   1.275       .  A
O1539     Ni1545   1.924       .  S
O1540      C1549   1.253       .  A
O1540     Ni1563   1.875       .  S
O1541     Ni1545   1.908       .  S
O1541     Ni1563   1.891       .  S
O1541     Ni1557   1.904       .  S
O1541      H1564   0.966       .  S
C1542      O1559   1.273       .  A
C1542      O1551   1.292       .  A
O1543      C1549   1.286       .  A
O1543     Ni1562   1.989       .  S
O1544      C1546   1.272       .  A
O1544     Ni1562   1.939       .  S
Ni1545     O1548   1.929       .  S
Ni1545     O1550   1.950       .  S
C1546      O1556   1.277       .  A
O1547      C1553   1.272       .  A
O1547     Ni1563   1.915       .  S
O1548      C1553   1.276       .  A
O1550      C1552   1.274       .  A
O1551     Ni1562   1.974       .  S
C1552      O1558   1.260       .  A
H1554      O1555   0.966       .  S
O1555     Ni1563   1.879       .  S
O1555     Ni1557   1.886       .  S
O1555     Ni1562   1.903       .  S
O1556     Ni1557   1.925       .  S
Ni1557     O1561   1.910       .  S
Ni1557     O1559   1.895       .  S
O1558     Ni1563   1.885       .  S
C1560      O1561   1.268       .  A
O1565      C1904   1.270       .  A
O1565     Ni1571   1.929       .  S
O1566      C2529   1.258       .  A
O1566     Ni1589   1.881       .  S
O1567     Ni1589   1.898       .  S
O1567     Ni1583   1.904       .  S
O1567      H1590   0.966       .  S
C1568      O1585   1.289       .  A
C1568      O1577   1.289       .  A
O1569      C1575   1.291       .  A
Ni1571     O1574   1.938       .  S
Ni1571     O1894   1.928       .  S
Ni1571     O1885   1.914       .  S
C1572      C2421   1.480       .  S
C1572      O2524   1.275       .  A
C1572      O1582   1.257       .  A
O1573      C1579   1.277       .  A
O1573     Ni1589   1.921       .  S
O1574      C1897   1.280       .  A
O1576      C1578   1.268       .  A
O1577     Ni1588   1.953       .  S
C1578      O1584   1.262       .  A
H1580      O1581   0.963       .  S
O1581     Ni1589   1.886       .  S
O1581     Ni1583   1.859       .  S
O1581     Ni1588   1.900       .  S
O1582     Ni1583   1.904       .  S
Ni1583     O1587   1.875       .  S
Ni1583     O1585   1.938       .  S
O1584     Ni1589   1.891       .  S
C1586      O1587   1.254       .  A
Ni1588     O2523   1.981       .  S
Ni1588     O2524   1.951       .  S
N1591      C1595   1.351       .  A
N1591      C1592   1.367       .  A
C1592      C1593   1.390       .  A
C1592      C1864   1.492       .  S
C1593      C1594   1.367       .  A
C1593      H1596   1.083       .  S
C1594      C1595   1.373       .  A
C1594      H1597   1.081       .  S
C1595      C1659   1.463       .  S
N1598      C1602   1.363       .  A
N1598      C1599   1.366       .  A
N1598      C1614   1.449       .  S
C1599      C1600   1.397       .  A
C1599      C1658   1.490       .  S
C1600      C1601   1.355       .  A
C1600      H1603   1.083       .  S
C1601      C1602   1.375       .  A
C1601      H1604   1.083       .  S
C1602      C1878   1.464       .  S
N1605      C1606   1.362       .  A
N1605      C1612   1.456       .  S
C1606      C1655   1.463       .  S
C1607      C1608   1.363       .  A
C1607      H1610   1.083   1_554  S
C1608      C1609   1.375       .  A
C1608      H1611   1.083       .  S
C1609      C1860   1.478       .  S
C1612      N1613   1.374       .  A
C1612      N1617   1.366       .  A
N1613      C1614   1.372       .  A
C1614      N1615   1.365       .  A
N1615      C1616   1.344       .  A
C1616      N1617   1.363       .  A
C1616      N2545   1.445       .  S
N1618      C1619   1.368       .  A
N1618      C1634   1.448       .  S
C1619      C1666   1.475       .  S
C1620      C1621   1.366       .  A
C1620      H1623   1.084       .  S
C1621      C1622   1.370       .  A
C1621      H1624   1.077       .  S
C1622      C1701   1.463       .  S
N1625      C1629   1.362       .  A
N1625      C1626   1.359       .  A
N1625      C1632   1.445       .  S
C1626      C1627   1.384       .  A
C1626      C1705   1.471       .  S
C1627      C1628   1.371       .  A
C1627      H1630   1.082       .  S
C1628      C1629   1.396       .  A
C1628      H1631   1.083       .  S
C1629      C1652   1.486       .  S
C1632      N1633   1.369       .  A
C1632      N1637   1.371       .  A
N1633      C1634   1.344       .  A
C1634      N1635   1.355       .  A
N1635      C1636   1.359       .  A
C1636      N1637   1.368       .  A
C1636      N1638   1.447       .  S
N1638      C1642   1.363       .  A
N1638      C1639   1.367       .  A
C1639      C1640   1.384       .  A
C1639      C1719   1.465       .  S
C1640      C1641   1.357       .  A
C1641      C1642   1.376       .  A
C1641      H1644   1.083       .  S
C1642      C1648   1.477       .  S
H1643      C2594   1.083       .  S
O1645      C1666   1.283       .  A
O1646      C1655   1.263       .  A
O1646     Ni1669   1.900       .  S
O1647     Ni1669   1.876   1_556  S
O1647      H1670   0.967       .  S
C1648      O1665   1.269       .  A
C1648      O1657   1.274       .  A
O1649      C1655   1.268   1_556  A
O1650      C1652   1.273       .  A
Ni1651     O1654   1.943       .  S
Ni1651     O2601   1.913   1_554  S
C1652      O1662   1.281       .  A
O1653      C1659   1.280       .  A
O1653     Ni1669   1.905       .  S
O1654      C2613   1.282       .  A
O1656      C1658   1.277       .  A
O1657     Ni1668   1.932       .  S
C1658      O2618   1.261       .  A
H1660      O1661   0.966       .  S
O1661     Ni1663   1.892       .  S
O1661     Ni1668   1.901       .  S
Ni1663     O1665   1.897       .  S
C1666      O1667   1.274       .  A
O1667     Ni2617   1.893       .  S
N1671      C1675   1.370       .  A
N1671      C1672   1.367       .  A
N1671      C1696   1.446       .  S
C1672      C1673   1.384       .  A
C1672      C1758   1.478       .  S
C1673      C1674   1.348       .  A
C1673      H1676   1.081       .  S
C1674      C1675   1.378       .  A
C1674      H1677   1.082       .  S
C1675      C1712   1.478       .  S
N1678      C1682   1.364       .  A
C1679      C1708   1.473       .  S
C1680      C1681   1.356       .  A
C1681      C1682   1.372       .  A
C1681      H1684   1.083       .  S
C1682      C1754   1.457       .  S
N1685      C2643   1.374       .  A
N1685      C1686   1.363       .  A
N1685      C2648   1.450       .  S
C1686      C1687   1.375       .  A
C1686      C1711   1.480       .  S
C1687      C2642   1.361       .  A
C1687      H1690   1.074       .  S
C1688      C1689   1.378       .  A
C1688      H1691   1.084       .  S
C1689      C1772   1.480       .  S
C1692      N1693   1.373       .  A
N1693      C1694   1.373       .  A
N1695      C2648   1.367       .  A
C1696      N2651   1.348       .  A
O1698      C1719   1.270       .  A
O1699      C1708   1.267       .  A
O1699     Ni1722   1.914       .  S
O1700     Ni1704   1.926       .  S
O1700     Ni1722   1.895       .  S
O1700     Ni1716   1.932       .  S
O1700      H1723   0.966       .  S
C1701      O1718   1.269       .  A
C1701      O1710   1.269       .  A
O1702      C1708   1.268       .  A
O1702     Ni1721   1.925       .  S
O1703      C1705   1.269       .  A
O1703     Ni1721   1.909       .  S
Ni1704     O2652   1.927       .  S
Ni1704     O1707   1.960       .  S
Ni1704     O1709   1.911       .  S
C1705      O1715   1.274       .  A
O1706      C1712   1.272       .  A
O1706     Ni1722   1.890       .  S
O1707      C1712   1.280       .  A
O1709      C1711   1.268       .  A
O1710     Ni1721   1.927       .  S
C1711      O1717   1.276       .  A
H1713      O1714   0.966       .  S
O1714     Ni1722   1.919       .  S
O1714     Ni1716   1.918       .  S
O1714     Ni1721   1.939       .  S
O1715     Ni1716   1.933       .  S
Ni1716     O1720   1.915       .  S
Ni1716     O1718   1.906       .  S
O1717     Ni1722   1.941       .  S
O1720      C2673   1.263       .  A
N1724      C1728   1.367       .  A
N1724      C1725   1.366       .  A
N1724      C1745   1.461       .  S
C1725      C1726   1.385       .  A
C1725      C1765   1.490       .  S
C1726      C1727   1.372       .  A
C1726      H1729   1.083       .  S
C1727      C1728   1.395       .  A
C1727      H1730   1.084       .  S
C1728      C1811   1.507       .  S
N1731      C2689   1.365       .  A
N1731      C2686   1.358       .  A
N1731      C1749   1.446       .  S
C1732      C1733   1.368       .  A
C1732      C1764   1.468       .  S
C1733      C1734   1.358       .  A
C1733      H1736   1.072       .  S
C1734      C1735   1.382       .  A
C1734      H1737   1.084       .  S
C1735      C1825   1.460       .  S
N1738      C1742   1.355       .  A
N1738      C1739   1.368       .  A
N1738      C1747   1.441       .  S
C1739      C1807   1.475       .  S
C1740      C1741   1.357       .  A
C1740      H1743   1.083       .  S
C1741      H1744   1.083       .  S
C1745      N1746   1.377       .  A
C1745      N1750   1.380       .  A
N1746      C1747   1.372       .  A
C1747      N1748   1.342       .  A
N1748      C1749   1.343       .  A
C1749      N1750   1.357       .  A
O1751      C1772   1.283       .  A
O1751     Ni1757   1.957       .  S
O1752      C1761   1.261       .  A
O1752     Ni1775   1.892       .  S
O1753     Ni1757   1.910       .  S
O1753     Ni1775   1.891       .  S
O1753     Ni1769   1.916       .  S
O1753      H1776   0.964       .  S
C1754      O1771   1.276       .  A
C1754      O1763   1.282       .  A
O1755      C1761   1.270       .  A
O1755     Ni1774   1.924       .  S
O1756      C1758   1.266       .  A
O1756     Ni1774   1.941       .  S
Ni1757     O1760   1.939       .  S
Ni1757     O1762   1.935       .  S
C1758      O1768   1.259       .  A
O1759      C1765   1.281       .  A
O1759     Ni1775   1.933       .  S
O1760      C1765   1.279       .  A
O1762      C1764   1.276       .  A
O1763     Ni1774   1.945       .  S
C1764      O1770   1.264       .  A
H1766      O1767   0.967       .  S
O1767     Ni1775   1.900       .  S
O1767     Ni1769   1.893       .  S
O1767     Ni1774   1.910       .  S
O1768     Ni1769   1.905       .  S
Ni1769     O1773   1.905       .  S
Ni1769     O1771   1.900       .  S
O1770     Ni1775   1.903       .  S
C1772      O1773   1.263       .  A
N1777      C1781   1.365       .  A
N1777      C1778   1.364       .  A
N1777      C1798   1.459       .  S
C1778      C1779   1.386       .  A
C1778      C1886   1.494       .  S
C1779      C1780   1.371       .  A
C1779      H1782   1.083       .  S
C1780      C1781   1.394       .  A
C1780      H1783   1.083       .  S
C1781      C1817   1.498       .  S
N1784      C1788   1.371       .  A
N1784      C1785   1.362       .  A
N1784      C1800   1.442       .  S
C1786      C2739   1.367       .  A
C1786      C1787   1.353       .  A
C1786      H1789   1.062       .  S
C1787      C2742   1.376       .  A
C1787      H1790   1.083       .  S
C1788      C1814   1.467       .  S
N1791      C1795   1.347   1_565  A
N1791      C1792   1.366   1_565  A
N1791      C1802   1.439       .  S
C1792      C1793   1.384       .  A
C1792      C1818   1.475   1_545  S
C1794      H1797   1.083       .  S
C1798      N1799   1.379       .  A
C1798      N1803   1.375       .  A
N1799      C1800   1.356       .  A
C1800      N1801   1.343       .  A
N1801      C1802   1.340       .  A
C1802      N1803   1.372       .  A
O1804      C1825   1.270       .  A
O1804     Ni1810   1.934       .  S
O1805      C1814   1.271       .  A
O1805     Ni1828   1.904       .  S
O1806     Ni1810   1.884       .  S
O1806     Ni1822   1.898       .  S
O1806      H1829   0.966       .  S
C1807      O1816   1.280       .  A
O1808      C1814   1.274       .  A
O1808     Ni1827   1.947       .  S
O1809      C1811   1.271       .  A
O1809     Ni1827   1.903       .  S
Ni1810     O1813   1.934       .  S
C1811      O1821   1.279       .  A
O1812      C1818   1.274   1_545  A
O1813      C1818   1.279       .  A
O1815      C1817   1.270       .  A
O1815     Ni2764   1.904       .  S
O1816     Ni2781   1.946       .  S
C1817      O1823   1.276       .  A
H1819      O2138   0.966       .  S
O1820     Ni1828   1.903       .  S
O1820     Ni1827   1.889       .  S
Ni1822     O1826   1.906       .  S
O1823     Ni2146   1.957   1_565  S
O1824     Ni2776   1.889       .  S
C1825      O1826   1.272       .  A
N1830      C1834   1.354   1_545  A
N1830      C1831   1.363       .  A
N1830      C2805   1.441       .  S
C1831      C1832   1.376       .  A
C1832      C1833   1.371       .  A
C1832      H1835   1.083       .  S
C1833      C1834   1.390   1_545  A
C1833      H1836   1.083       .  S
C1834      C1870   1.481       .  S
N1837      C1841   1.348       .  A
N1837      C1838   1.357       .  A
N1837      C1853   1.439       .  S
C1838      C1839   1.375       .  A
C1838      C1871   1.473       .  S
C1839      C1840   1.371       .  A
C1839      H1842   1.083       .  S
C1840      C1841   1.389       .  A
C1840      H1843   1.081       .  S
C1841      C1896   1.464       .  S
N1844      C1848   1.358       .  A
N1844      C1845   1.364       .  A
N1844      C1855   1.431       .  S
C1845      C1846   1.381       .  A
C1845      C1893   1.465       .  S
C1846      C1847   1.371       .  A
C1846      H1849   1.083       .  S
C1847      C1848   1.378       .  A
C1847      H1850   1.080       .  S
C1848      C1867   1.474       .  S
C1851      N1856   1.361   1_545  A
N1852      C1853   1.360       .  A
N1854      C1855   1.359   1_545  A
C1855      N1856   1.362       .  A
O1857      C1878   1.275       .  A
O1857     Ni1863   1.924       .  S
O1858      C1867   1.253       .  A
O1858     Ni1881   1.875       .  S
O1859     Ni1863   1.908       .  S
O1859     Ni1881   1.891       .  S
O1859     Ni1875   1.904       .  S
O1859      H1882   0.966       .  S
C1860      O1877   1.273       .  A
C1860      O1869   1.292       .  A
O1861      C1867   1.286       .  A
O1861     Ni1880   1.989       .  S
O1862      C1864   1.272       .  A
O1862     Ni1880   1.939       .  S
Ni1863     O1866   1.929       .  S
Ni1863     O1868   1.950       .  S
C1864      O1874   1.277       .  A
O1865      C1871   1.272       .  A
O1865     Ni1881   1.915       .  S
O1866      C1871   1.276       .  A
O1868      C1870   1.274       .  A
O1869     Ni1880   1.974       .  S
C1870      O1876   1.260       .  A
H1872      O1873   0.966       .  S
O1873     Ni1881   1.879       .  S
O1873     Ni1875   1.886       .  S
O1873     Ni1880   1.903       .  S
O1874     Ni1875   1.925       .  S
Ni1875     O1879   1.910       .  S
Ni1875     O1877   1.895       .  S
O1876     Ni1881   1.885       .  S
C1878      O1879   1.268       .  A
O1883     Ni1889   1.929       .  S
O1884      C2847   1.258       .  A
O1884     Ni1907   1.881       .  S
O1885     Ni1907   1.898       .  S
O1885     Ni1901   1.904       .  S
O1885      H1908   0.966       .  S
C1886      O1903   1.289       .  A
C1886      O1895   1.289       .  A
O1887      C1893   1.291       .  A
Ni1889     O1892   1.938       .  S
C1890      C2739   1.480       .  S
C1890      O2842   1.275       .  A
C1890      O1900   1.257       .  A
O1891      C1897   1.277       .  A
O1891     Ni1907   1.921       .  S
O1894      C1896   1.268       .  A
O1895     Ni1906   1.953       .  S
C1896      O1902   1.262       .  A
H1898      O1899   0.963       .  S
O1899     Ni1907   1.885       .  S
O1899     Ni1901   1.859       .  S
O1899     Ni1906   1.900       .  S
O1900     Ni1901   1.904       .  S
Ni1901     O1905   1.875       .  S
Ni1901     O1903   1.938       .  S
O1902     Ni1907   1.891       .  S
C1904      O1905   1.254       .  A
Ni1906     O2841   1.981       .  S
Ni1906     O2842   1.951       .  S
N1909      C1913   1.351       .  A
N1909      C1910   1.367       .  A
C1910      C1911   1.390       .  A
C1910      C2182   1.492       .  S
C1911      C1912   1.367       .  A
C1911      H1914   1.083       .  S
C1912      C1913   1.373       .  A
C1912      H1915   1.081       .  S
C1913      C1977   1.463       .  S
N1916      C1920   1.363       .  A
N1916      C1917   1.366       .  A
N1916      C1932   1.449       .  S
C1917      C1918   1.397   1_655  A
C1917      C1976   1.490       .  S
C1918      C1919   1.355       .  A
C1918      H1921   1.083       .  S
C1919      C1920   1.375   1_455  A
C1919      H1922   1.083       .  S
C1920      C2196   1.464       .  S
N1923      C2563   1.366   1_545  A
N1923      C1924   1.362       .  A
N1923      C1930   1.456       .  S
C1924      C2561   1.385   1_545  A
C1924      C1973   1.463       .  S
C1925      C2242   1.385       .  A
C1925      C1926   1.363       .  A
C1925      H1928   1.083   1_554  S
C1926      C1927   1.375       .  A
C1926      H1929   1.083       .  S
C1927      N2241   1.366       .  A
C1927      C2178   1.478       .  S
C1930      N1931   1.374       .  A
C1930      N1935   1.366       .  A
N1931      C1932   1.372       .  A
C1932      N1933   1.365       .  A
N1933      C1934   1.344       .  A
C1934      N1935   1.363       .  A
N1936      C2258   1.353       .  A
N1936      C1937   1.368       .  A
N1936      C1952   1.448       .  S
C1937      C2256   1.387       .  A
C1937      C1984   1.475       .  S
C1938      C2573   1.387   1_545  A
C1938      C1939   1.366       .  A
C1938      H1941   1.084       .  S
C1939      C1940   1.370   1_545  A
C1939      H1942   1.077       .  S
C1940      N2572   1.353       .  A
C1940      C2019   1.463   1_565  S
N1943      C1947   1.362       .  A
N1943      C1944   1.359       .  A
N1943      C1950   1.445       .  S
C1944      C1945   1.384       .  A
C1944      C2023   1.471       .  S
C1945      C1946   1.371       .  A
C1945      H1948   1.082       .  S
C1946      C1947   1.396       .  A
C1946      H1949   1.083       .  S
C1947      C1970   1.486       .  S
C1950      N1951   1.369       .  A
C1950      N1955   1.371       .  A
N1951      C1952   1.344       .  A
C1952      N1953   1.355       .  A
N1953      C1954   1.359       .  A
C1954      N1955   1.368       .  A
C1954      N1956   1.447       .  S
N1956      C1960   1.363       .  A
N1956      C1957   1.367       .  A
C1957      C1958   1.384       .  A
C1957      C2037   1.465       .  S
C1958      C1959   1.357       .  A
C1959      C1960   1.376       .  A
C1959      H1962   1.083       .  S
C1960      C1966   1.477       .  S
O1963      C1984   1.283       .  A
O1963     Ni2287   1.955   1_556  S
O1964      C1973   1.263       .  A
O1964     Ni1987   1.900       .  S
O1965     Ni1987   1.876   1_566  S
O1965     Ni2617   1.900       .  S
O1965      H1988   0.967   1_565  S
C1966      O1983   1.269       .  A
C1966      O1975   1.274       .  A
O1967      C1973   1.268   1_556  A
O1967     Ni2622   1.927   1_545  S
O1968      C1970   1.273       .  A
O1968     Ni2622   1.898   1_545  S
Ni1969     O2599   1.955   1_554  S
Ni1969     O1972   1.943       .  S
Ni1969     O2610   1.950       .  S
C1970      O1980   1.281       .  A
O1971      C1977   1.280       .  A
O1971     Ni1987   1.905       .  S
O1974      C1976   1.277       .  A
O1974     Ni2287   1.950       .  S
O1975     Ni1986   1.932       .  S
H1978      O1979   0.966       .  S
O1979     Ni2305   1.927   1_556  S
O1979     Ni1981   1.892       .  S
O1979     Ni1986   1.901       .  S
O1980     Ni2617   1.955   1_545  S
Ni1981     O2298   1.955       .  S
Ni1981     O1983   1.897       .  S
Ni1981     O2283   1.900       .  S
O1982     Ni2305   1.881       .  S
C1984      O1985   1.274       .  A
Ni1986     O2285   1.927       .  S
Ni1986     O2286   1.898       .  S
Ni1987     O2618   1.881   1_545  S
Ni1987     O2615   1.927   1_544  S
N1989      C1993   1.370       .  A
N1989      C1990   1.367       .  A
N1989      C2014   1.446       .  S
C1990      C1991   1.384       .  A
C1990      C2076   1.477       .  S
C1991      C1992   1.348       .  A
C1991      H1994   1.081       .  S
C1992      C1993   1.378       .  A
C1992      H1995   1.082       .  S
C1993      C2030   1.478       .  S
N1996      C2000   1.364       .  A
N1996      C2315   1.364       .  A
N1996      C2328   1.449       .  S
C1997      N2632   1.364       .  A
C1997      C2634   1.386       .  A
C1997      C2026   1.473   1_565  S
C1998      C2315   1.386       .  A
C1998      C1999   1.356       .  A
C1998      H2319   1.080       .  S
C1999      C2000   1.372       .  A
C1999      H2002   1.083       .  S
C2000      C2072   1.457       .  S
H2001      C2634   1.080       .  S
N2003      C2004   1.363       .  A
C2004      C2005   1.375       .  A
C2004      C2029   1.480       .  S
C2005      H2008   1.074       .  S
C2006      C2007   1.378       .  A
C2006      H2009   1.084       .  S
C2007      C2090   1.480       .  S
C2010      N2011   1.373   1_565  A
C2010      N2651   1.362       .  A
C2010      N2632   1.449       .  S
N2011      C2012   1.373       .  A
N2013      C2650   1.354       .  A
C2014      N2331   1.354       .  A
N2015      C2328   1.362       .  A
O2016      C2037   1.270       .  A
O2017      C2026   1.267       .  A
O2017     Ni2040   1.914       .  S
O2018     Ni2022   1.926       .  S
O2018     Ni2040   1.895       .  S
O2018     Ni2034   1.932       .  S
O2018      H2041   0.966       .  S
C2019      O2036   1.269       .  A
C2019      O2028   1.269       .  A
O2020      C2026   1.268       .  A
O2020     Ni2039   1.925       .  S
O2021      C2023   1.269       .  A
O2021     Ni2039   1.909       .  S
Ni2022     O2025   1.960       .  S
Ni2022     O2027   1.911       .  S
C2023      O2033   1.274       .  A
O2024      C2030   1.272       .  A
O2024     Ni2040   1.890       .  S
O2025      C2030   1.280       .  A
O2027      C2029   1.268       .  A
O2028     Ni2039   1.927       .  S
C2029      O2035   1.276       .  A
H2031      O2032   0.966       .  S
O2032     Ni2040   1.919       .  S
O2032     Ni2034   1.918       .  S
O2032     Ni2039   1.939       .  S
O2033     Ni2034   1.933       .  S
Ni2034     O2038   1.915       .  S
Ni2034     O2036   1.906       .  S
O2035     Ni2040   1.941       .  S
N2042      C2046   1.367       .  A
N2042      C2043   1.366       .  A
N2042      C2063   1.461       .  S
C2043      C2044   1.385       .  A
C2043      C2083   1.490       .  S
C2044      C2045   1.372       .  A
C2044      H2047   1.083       .  S
C2045      C2046   1.395       .  A
C2045      H2048   1.084       .  S
C2046      C2129   1.507       .  S
N2049      C2067   1.446   1_455  S
C2050      C2051   1.368       .  A
C2050      C2082   1.468       .  S
C2051      C2052   1.358       .  A
C2051      H2054   1.073       .  S
C2052      C2053   1.382       .  A
C2052      H2055   1.084       .  S
C2053      C2143   1.460       .  S
N2056      C2060   1.355       .  A
N2056      C2057   1.368       .  A
N2056      C2065   1.441       .  S
C2057      C2694   1.379   1_545  A
C2057      C2125   1.475       .  S
C2058      C2375   1.379       .  A
C2058      C2059   1.357       .  A
C2058      H2061   1.083       .  S
C2059      C2378   1.380       .  A
C2059      H2062   1.083       .  S
C2060      C2695   1.380   1_545  A
C2060      C2715   1.446   1_545  S
C2063      N2064   1.377       .  A
C2063      N2068   1.380       .  A
N2064      C2065   1.372       .  A
C2065      N2066   1.342       .  A
N2066      C2067   1.343       .  A
C2067      N2068   1.357       .  A
O2069      C2090   1.283       .  A
O2069     Ni2075   1.957       .  S
O2070      C2079   1.261       .  A
O2070     Ni2093   1.892       .  S
O2071     Ni2075   1.910       .  S
O2071     Ni2093   1.891       .  S
O2071     Ni2087   1.916       .  S
O2071      H2094   0.964       .  S
C2072      O2089   1.276       .  A
C2072      O2081   1.282       .  A
O2073      C2079   1.270       .  A
O2073     Ni2092   1.924       .  S
O2074      C2076   1.266       .  A
O2074     Ni2092   1.941       .  S
Ni2075     O2078   1.939       .  S
Ni2075     O2080   1.935       .  S
C2076      O2086   1.259       .  A
O2077      C2083   1.281       .  A
O2077     Ni2093   1.933       .  S
O2078      C2083   1.279       .  A
C2079      C2378   1.446       .  S
O2080      C2082   1.276       .  A
O2081     Ni2092   1.945       .  S
C2082      O2088   1.264       .  A
H2084      O2085   0.967       .  S
O2085     Ni2093   1.900       .  S
O2085     Ni2087   1.893       .  S
O2085     Ni2092   1.910       .  S
O2086     Ni2087   1.905       .  S
Ni2087     O2091   1.905       .  S
Ni2087     O2089   1.900       .  S
O2088     Ni2093   1.903       .  S
C2090      O2091   1.263       .  A
N2095      C2099   1.365       .  A
N2095      C2096   1.364       .  A
N2095      C2116   1.459       .  S
C2096      C2097   1.386       .  A
C2096      C2204   1.494       .  S
C2097      C2098   1.371       .  A
C2097      H2100   1.083       .  S
C2098      C2099   1.394       .  A
C2098      H2101   1.083       .  S
C2099      C2135   1.498       .  S
N2102      C2106   1.371       .  A
N2102      C2103   1.362       .  A
N2102      C2118   1.442       .  S
C2104      C2105   1.353       .  A
C2104      H2107   1.062       .  S
C2105      H2108   1.083       .  S
C2106      C2132   1.467       .  S
N2109      C2113   1.347       .  A
N2109      C2110   1.366       .  A
N2109      C2120   1.439       .  S
C2110      C2111   1.384       .  A
C2110      C2136   1.475       .  S
C2111      C2430   1.358       .  A
C2111      H2432   1.083       .  S
C2112      C2747   1.358       .  A
C2112      C2749   1.377       .  A
C2112      H2115   1.083       .  S
C2113      C2430   1.377       .  A
C2113      C2540   1.436       .  S
H2114      C2747   1.083       .  S
C2116      N2117   1.379       .  A
C2116      N2121   1.375       .  A
N2117      C2118   1.356       .  A
C2118      N2119   1.343       .  A
N2119      C2120   1.340       .  A
C2120      N2121   1.372       .  A
O2122      C2143   1.270       .  A
O2122     Ni2128   1.934       .  S
O2123      C2132   1.271       .  A
O2123     Ni2146   1.904       .  S
O2124     Ni2128   1.884       .  S
O2124     Ni2464   1.890       .  S
O2124     Ni2140   1.898       .  S
O2124      H2147   0.966       .  S
C2125      O2778   1.271   1_545  A
C2125      O2134   1.280       .  A
O2126      C2132   1.274       .  A
O2126     Ni2145   1.947       .  S
O2127      C2129   1.271       .  A
O2127     Ni2145   1.903       .  S
Ni2128     O2131   1.934       .  S
C2129      O2139   1.279       .  A
O2130      C2136   1.274       .  A
O2130     Ni2464   1.894       .  S
O2131      C2136   1.279       .  A
O2133      C2135   1.270       .  A
C2135      O2141   1.276       .  A
O2138     Ni2146   1.903       .  S
O2138     Ni2776   1.902   1_545  S
O2138     Ni2145   1.889       .  S
O2139     Ni2776   1.969   1_545  S
Ni2140     O2457   1.969       .  S
Ni2140     O2144   1.906       .  S
Ni2140     O2456   1.902       .  S
O2142      C2443   1.271       .  A
C2143      O2144   1.272       .  A
Ni2146     O2766   1.894       .  S
Ni2146     O2760   1.890   1_545  S
N2148      C2152   1.354       .  A
N2148      C2149   1.363       .  A
C2149      C2150   1.376       .  A
C2149      C2533   1.478       .  S
C2150      C2151   1.371       .  A
C2150      H2153   1.083       .  S
C2151      C2152   1.390       .  A
C2151      H2154   1.083       .  S
C2152      C2188   1.481       .  S
N2155      C2159   1.348       .  A
N2155      C2156   1.357       .  A
N2155      C2171   1.439       .  S
C2156      C2157   1.375       .  A
C2156      C2189   1.473       .  S
C2157      C2158   1.371       .  A
C2157      H2160   1.083       .  S
C2158      C2159   1.389       .  A
C2158      H2161   1.081       .  S
C2159      C2214   1.464       .  S
N2162      C2166   1.358       .  A
N2162      C2163   1.364       .  A
N2162      C2173   1.431       .  S
C2163      C2164   1.381       .  A
C2163      C2211   1.465       .  S
C2164      C2165   1.371       .  A
C2164      H2167   1.083       .  S
C2165      C2166   1.378       .  A
C2165      H2168   1.080       .  S
C2166      C2185   1.474       .  S
C2169      N2488   1.362       .  A
C2169      N2174   1.361       .  A
N2170      C2805   1.362       .  A
N2170      C2171   1.360       .  A
C2171      N2808   1.359       .  A
N2172      C2489   1.359       .  A
N2172      C2173   1.359       .  A
C2173      N2174   1.362       .  A
O2175      C2196   1.275       .  A
O2175     Ni2181   1.924       .  S
O2176      C2185   1.253       .  A
O2176     Ni2199   1.875       .  S
O2177     Ni2181   1.908       .  S
O2177     Ni2199   1.891       .  S
O2177     Ni2193   1.904       .  S
O2177      H2200   0.966       .  S
C2178      O2195   1.273       .  A
C2178      O2187   1.292       .  A
O2179      C2185   1.286       .  A
O2179     Ni2198   1.989       .  S
O2180      C2182   1.272       .  A
O2180     Ni2198   1.939       .  S
Ni2181     O2184   1.929       .  S
Ni2181     O2186   1.950       .  S
C2182      O2192   1.277       .  A
O2183      C2189   1.272       .  A
O2183     Ni2199   1.915       .  S
O2184      C2189   1.276       .  A
O2186      C2188   1.274       .  A
O2187     Ni2198   1.974       .  S
C2188      O2194   1.260       .  A
H2190      O2191   0.966       .  S
O2191     Ni2199   1.879       .  S
O2191     Ni2193   1.886       .  S
O2191     Ni2198   1.903       .  S
O2192     Ni2193   1.925       .  S
Ni2193     O2197   1.910       .  S
Ni2193     O2195   1.895       .  S
O2194     Ni2199   1.885       .  S
C2196      O2197   1.268       .  A
O2201      C2540   1.270       .  A
O2201     Ni2207   1.929       .  S
O2202     Ni2225   1.881       .  S
O2203     Ni2843   1.914       .  S
O2203     Ni2225   1.898       .  S
O2203     Ni2219   1.904       .  S
O2203      H2226   0.966       .  S
C2204      O2221   1.289       .  A
C2204      O2213   1.289       .  A
O2205      C2211   1.291       .  A
Ni2207     O2210   1.938       .  S
Ni2207     O2530   1.928       .  S
Ni2207     O2521   1.914       .  S
C2208      O2218   1.257   1_455  A
O2209      C2215   1.277       .  A
O2209     Ni2225   1.921       .  S
O2210      C2533   1.280       .  A
O2212      C2214   1.268       .  A
O2212     Ni2843   1.928       .  S
O2213     Ni2224   1.953       .  S
C2214      O2220   1.262       .  A
C2215      C2785   1.478       .  S
C2215      O2846   1.280       .  A
H2216      O2217   0.963       .  S
O2217     Ni2225   1.885       .  S
O2217     Ni2219   1.859       .  S
O2217     Ni2224   1.900       .  S
O2218     Ni2219   1.904       .  S
Ni2219     O2223   1.875       .  S
Ni2219     O2221   1.938       .  S
O2220     Ni2225   1.891       .  S
C2222      C2749   1.436       .  S
C2222      O2837   1.270       .  A
C2222      O2223   1.254       .  A
N2227      C2231   1.351       .  A
N2227      C2228   1.367       .  A
C2228      C2229   1.390       .  A
C2228      C2500   1.492       .  S
C2229      C2230   1.367       .  A
C2229      H2232   1.083       .  S
C2230      C2231   1.373       .  A
C2230      H2233   1.081       .  S
C2231      C2295   1.463       .  S
N2234      C2238   1.363       .  A
N2234      C2235   1.366       .  A
N2234      C2250   1.449       .  S
C2235      C2236   1.397   1_655  A
C2235      C2294   1.490       .  S
C2236      C2237   1.355       .  A
C2236      H2239   1.083       .  S
C2237      C2238   1.375   1_455  A
C2237      H2240   1.083       .  S
C2238      C2514   1.464       .  S
N2241      C2242   1.362       .  A
N2241      C2248   1.456       .  S
C2242      C2291   1.463       .  S
C2243      C2560   1.385       .  A
C2243      C2244   1.363       .  A
C2243      H2246   1.083   1_554  S
C2244      C2245   1.375       .  A
C2244      H2247   1.083       .  S
C2245      N2559   1.366       .  A
C2245      C2496   1.478       .  S
C2248      N2249   1.374       .  A
C2248      N2253   1.366       .  A
N2249      C2250   1.372       .  A
C2250      N2251   1.365       .  A
N2251      C2252   1.344       .  A
C2252      N2253   1.363       .  A
N2254      C2576   1.353       .  A
N2254      C2255   1.368       .  A
N2254      C2270   1.448       .  S
C2255      C2574   1.387       .  A
C2255      C2302   1.475       .  S
C2256      C2257   1.366       .  A
C2256      H2259   1.084       .  S
C2257      C2258   1.370       .  A
C2257      H2260   1.077       .  S
C2258      C2337   1.463       .  S
N2261      C2265   1.362       .  A
N2261      C2262   1.359       .  A
N2261      C2268   1.445       .  S
C2262      C2263   1.384       .  A
C2262      C2341   1.471       .  S
C2263      C2264   1.371       .  A
C2263      H2266   1.082       .  S
C2264      C2265   1.396       .  A
C2264      H2267   1.083       .  S
C2265      C2288   1.486       .  S
C2268      N2269   1.369       .  A
C2268      N2273   1.371       .  A
N2269      C2270   1.344       .  A
C2270      N2271   1.355       .  A
N2271      C2272   1.359       .  A
C2272      N2273   1.368       .  A
C2272      N2274   1.447       .  S
N2274      C2278   1.363       .  A
N2274      C2275   1.367       .  A
C2275      C2276   1.384       .  A
C2275      C2355   1.465       .  S
C2276      C2277   1.357       .  A
C2277      C2278   1.376       .  A
C2277      H2280   1.083       .  S
C2278      C2284   1.477       .  S
O2281      C2302   1.283       .  A
O2281     Ni2605   1.955   1_556  S
O2282      C2291   1.263       .  A
O2282     Ni2305   1.900       .  S
O2283     Ni2305   1.876   1_556  S
O2283      H2306   0.967       .  S
C2284      O2301   1.269       .  A
C2284      O2293   1.274       .  A
O2285      C2291   1.268   1_556  A
O2286      C2288   1.273       .  A
Ni2287     O2290   1.943       .  S
C2288      O2298   1.281       .  A
O2289      C2295   1.280       .  A
O2289     Ni2305   1.905       .  S
O2292      C2294   1.277       .  A
O2292     Ni2605   1.950       .  S
O2293     Ni2304   1.932       .  S
H2296      O2297   0.966       .  S
O2297     Ni2623   1.927   1_556  S
O2297     Ni2299   1.892       .  S
O2297     Ni2304   1.901       .  S
Ni2299     O2616   1.955       .  S
Ni2299     O2301   1.897       .  S
Ni2299     O2601   1.900       .  S
O2300     Ni2623   1.881       .  S
C2302      O2303   1.274       .  A
Ni2304     O2603   1.927       .  S
Ni2304     O2604   1.898       .  S
N2307      C2311   1.370       .  A
N2307      C2308   1.367       .  A
N2307      C2332   1.446       .  S
C2308      C2309   1.384       .  A
C2308      C2394   1.477       .  S
C2309      C2310   1.348       .  A
C2309      H2312   1.081       .  S
C2310      C2311   1.378       .  A
C2310      H2313   1.082       .  S
C2311      C2348   1.478       .  S
N2314      C2318   1.364       .  A
N2314      C2633   1.364       .  A
N2314      C2646   1.449       .  S
C2315      C2344   1.473       .  S
C2316      C2633   1.386       .  A
C2316      C2317   1.356       .  A
C2316      H2637   1.080       .  S
C2317      C2318   1.372       .  A
C2317      H2320   1.083       .  S
C2318      C2390   1.457       .  S
N2321      C2322   1.363       .  A
C2322      C2323   1.375       .  A
C2322      C2347   1.480       .  S
C2323      H2326   1.074       .  S
C2324      C2325   1.378       .  A
C2324      H2327   1.084       .  S
C2325      C2408   1.480       .  S
C2328      N2329   1.373       .  A
N2329      C2330   1.373       .  A
C2332      N2649   1.354       .  A
N2333      C2646   1.362       .  A
O2334      C2355   1.270       .  A
O2335      C2344   1.267       .  A
O2335     Ni2358   1.914       .  S
O2336     Ni2340   1.926       .  S
O2336     Ni2358   1.895       .  S
O2336     Ni2352   1.932       .  S
O2336      H2359   0.966       .  S
C2337      O2354   1.269       .  A
C2337      O2346   1.269       .  A
O2338      C2344   1.268       .  A
O2338     Ni2357   1.925       .  S
O2339      C2341   1.269       .  A
O2339     Ni2357   1.909       .  S
Ni2340     O2343   1.960       .  S
Ni2340     O2345   1.911       .  S
C2341      O2351   1.274       .  A
O2342      C2348   1.272       .  A
O2342     Ni2358   1.890       .  S
O2343      C2348   1.280       .  A
O2345      C2347   1.268       .  A
O2346     Ni2357   1.927       .  S
C2347      O2353   1.276       .  A
H2349      O2350   0.966       .  S
O2350     Ni2358   1.919       .  S
O2350     Ni2352   1.918       .  S
O2350     Ni2357   1.939       .  S
O2351     Ni2352   1.933       .  S
Ni2352     O2356   1.915       .  S
Ni2352     O2354   1.906       .  S
O2353     Ni2358   1.941       .  S
N2360      C2364   1.367       .  A
N2360      C2361   1.366       .  A
N2360      C2381   1.461       .  S
C2361      C2362   1.385       .  A
C2361      C2401   1.490       .  S
C2362      C2363   1.372       .  A
C2362      H2365   1.083       .  S
C2363      C2364   1.395       .  A
C2363      H2366   1.084       .  S
C2364      C2447   1.507       .  S
N2367      C2385   1.446   1_455  S
C2368      C2369   1.368       .  A
C2368      C2400   1.468       .  S
C2369      C2370   1.358       .  A
C2369      H2372   1.073       .  S
C2370      C2371   1.382       .  A
C2370      H2373   1.084       .  S
C2371      C2461   1.460       .  S
N2374      C2378   1.355       .  A
N2374      C2375   1.368       .  A
N2374      C2383   1.441       .  S
C2375      C2443   1.475       .  S
C2376      C2693   1.379       .  A
C2376      C2377   1.357       .  A
C2376      H2379   1.083       .  S
C2377      C2696   1.380       .  A
C2377      H2380   1.083       .  S
C2381      N2382   1.377       .  A
C2381      N2386   1.380       .  A
N2382      C2383   1.372       .  A
C2383      N2384   1.342       .  A
N2384      C2385   1.343       .  A
C2385      N2386   1.357       .  A
O2387      C2408   1.283       .  A
O2387     Ni2393   1.957       .  S
O2388      C2397   1.261       .  A
O2388     Ni2411   1.892       .  S
O2389     Ni2393   1.910       .  S
O2389     Ni2411   1.891       .  S
O2389     Ni2405   1.916       .  S
O2389      H2412   0.964       .  S
C2390      O2407   1.276       .  A
C2390      O2399   1.282       .  A
O2391      C2397   1.270       .  A
O2391     Ni2410   1.924       .  S
O2392      C2394   1.266       .  A
O2392     Ni2410   1.941       .  S
Ni2393     O2396   1.939       .  S
Ni2393     O2398   1.935       .  S
C2394      O2404   1.259       .  A
O2395      C2401   1.281       .  A
O2395     Ni2411   1.933       .  S
O2396      C2401   1.279       .  A
C2397      C2696   1.446       .  S
O2398      C2400   1.276       .  A
O2399     Ni2410   1.945       .  S
C2400      O2406   1.264       .  A
H2402      O2403   0.967       .  S
O2403     Ni2411   1.900       .  S
O2403     Ni2405   1.893       .  S
O2403     Ni2410   1.910       .  S
O2404     Ni2405   1.905       .  S
Ni2405     O2409   1.905       .  S
Ni2405     O2407   1.900       .  S
O2406     Ni2411   1.903       .  S
C2408      O2409   1.263       .  A
N2413      C2417   1.365       .  A
N2413      C2414   1.364       .  A
N2413      C2434   1.459       .  S
C2414      C2415   1.386       .  A
C2414      C2522   1.494       .  S
C2415      C2416   1.371       .  A
C2415      H2418   1.083       .  S
C2416      C2417   1.394       .  A
C2416      H2419   1.083       .  S
C2417      C2453   1.498       .  S
N2420      C2424   1.371       .  A
N2420      C2421   1.362       .  A
N2420      C2436   1.442       .  S
C2422      C2423   1.353       .  A
C2422      H2425   1.062       .  S
C2423      H2426   1.083       .  S
C2424      C2450   1.467       .  S
N2427      C2431   1.347       .  A
N2427      C2428   1.366       .  A
N2427      C2438   1.439       .  S
C2428      C2429   1.384       .  A
C2428      C2454   1.475       .  S
C2429      C2748   1.358       .  A
C2429      H2750   1.083       .  S
C2430      H2433   1.083       .  S
C2431      C2748   1.377       .  A
C2431      C2858   1.436       .  S
C2434      N2435   1.379       .  A
C2434      N2439   1.375       .  A
N2435      C2436   1.356       .  A
C2436      N2437   1.343       .  A
N2437      C2438   1.340       .  A
C2438      N2439   1.372       .  A
O2440      C2461   1.270       .  A
O2440     Ni2446   1.934       .  S
O2441      C2450   1.271       .  A
O2441     Ni2464   1.904       .  S
O2442     Ni2446   1.884       .  S
O2442     Ni2782   1.890       .  S
O2442     Ni2458   1.898       .  S
O2442      H2465   0.966       .  S
C2443      O2452   1.280       .  A
O2444      C2450   1.274       .  A
O2444     Ni2463   1.947       .  S
O2445      C2447   1.271       .  A
O2445     Ni2463   1.903       .  S
Ni2446     O2449   1.934       .  S
C2447      O2457   1.279       .  A
O2448      C2454   1.274       .  A
O2448     Ni2782   1.894       .  S
O2449      C2454   1.279       .  A
O2451      C2453   1.270       .  A
C2453      O2459   1.276       .  A
O2456     Ni2464   1.903       .  S
O2456     Ni2463   1.889       .  S
Ni2458     O2775   1.969       .  S
Ni2458     O2462   1.906       .  S
Ni2458     O2774   1.902       .  S
O2460      C2761   1.271       .  A
C2461      O2462   1.272       .  A
N2466      C2470   1.354       .  A
N2466      C2467   1.363       .  A
C2467      C2468   1.376       .  A
C2467      C2851   1.478       .  S
C2468      C2469   1.371       .  A
C2468      H2471   1.083       .  S
C2469      C2470   1.390       .  A
C2469      H2472   1.083       .  S
C2470      C2506   1.481       .  S
N2473      C2477   1.348       .  A
N2473      C2474   1.357       .  A
N2473      C2489   1.439       .  S
C2474      C2475   1.375       .  A
C2474      C2507   1.473       .  S
C2475      C2476   1.371       .  A
C2475      H2478   1.083       .  S
C2476      C2477   1.389       .  A
C2476      H2479   1.081       .  S
C2477      C2532   1.464       .  S
N2480      C2484   1.358       .  A
N2480      C2481   1.364       .  A
N2480      C2491   1.431       .  S
C2481      C2482   1.381       .  A
C2481      C2529   1.465       .  S
C2482      C2483   1.371       .  A
C2482      H2485   1.083       .  S
C2483      C2484   1.378       .  A
C2483      H2486   1.080       .  S
C2484      C2503   1.474       .  S
C2487      N2806   1.362       .  A
C2487      N2492   1.361       .  A
N2488      C2489   1.360       .  A
N2490      C2807   1.359       .  A
N2490      C2491   1.359       .  A
C2491      N2492   1.362       .  A
O2493      C2514   1.275       .  A
O2493     Ni2499   1.924       .  S
O2494      C2503   1.253       .  A
O2494     Ni2517   1.875       .  S
O2495     Ni2499   1.908       .  S
O2495     Ni2517   1.891       .  S
O2495     Ni2511   1.904       .  S
O2495      H2518   0.966       .  S
C2496      O2513   1.273       .  A
C2496      O2505   1.292       .  A
O2497      C2503   1.286       .  A
O2497     Ni2516   1.989       .  S
O2498      C2500   1.272       .  A
O2498     Ni2516   1.939       .  S
Ni2499     O2502   1.929       .  S
Ni2499     O2504   1.950       .  S
C2500      O2510   1.277       .  A
O2501      C2507   1.272       .  A
O2501     Ni2517   1.915       .  S
O2502      C2507   1.276       .  A
O2504      C2506   1.274       .  A
O2505     Ni2516   1.974       .  S
C2506      O2512   1.260       .  A
H2508      O2509   0.966       .  S
O2509     Ni2517   1.879       .  S
O2509     Ni2511   1.886       .  S
O2509     Ni2516   1.903       .  S
O2510     Ni2511   1.925       .  S
Ni2511     O2515   1.910       .  S
Ni2511     O2513   1.895       .  S
O2512     Ni2517   1.885       .  S
C2514      O2515   1.268       .  A
O2519      C2858   1.270       .  A
O2519     Ni2525   1.929       .  S
O2520     Ni2543   1.881       .  S
O2521     Ni2543   1.898       .  S
O2521     Ni2537   1.904       .  S
O2521      H2544   0.966       .  S
C2522      O2539   1.289       .  A
C2522      O2531   1.289       .  A
O2523      C2529   1.291       .  A
Ni2525     O2528   1.938       .  S
Ni2525     O2848   1.928       .  S
Ni2525     O2839   1.914       .  S
C2526      O2536   1.257   1_455  A
O2527      C2533   1.277       .  A
O2527     Ni2543   1.921       .  S
O2528      C2851   1.280       .  A
O2530      C2532   1.268       .  A
O2531     Ni2542   1.953       .  S
C2532      O2538   1.262       .  A
H2534      O2535   0.963       .  S
O2535     Ni2543   1.886       .  S
O2535     Ni2537   1.859       .  S
O2535     Ni2542   1.900       .  S
O2536     Ni2537   1.904       .  S
Ni2537     O2541   1.875       .  S
Ni2537     O2539   1.938       .  S
O2538     Ni2543   1.891       .  S
C2540      O2541   1.254       .  A
N2545      C2549   1.351       .  A
N2545      C2546   1.367       .  A
C2546      C2547   1.390       .  A
C2546      C2818   1.492       .  S
C2547      C2548   1.367       .  A
C2547      H2550   1.083       .  S
C2548      C2549   1.373       .  A
C2548      H2551   1.081       .  S
C2549      C2613   1.463       .  S
N2552      C2556   1.363       .  A
N2552      C2553   1.366       .  A
N2552      C2568   1.449       .  S
C2553      C2554   1.397   1_655  A
C2553      C2612   1.490       .  S
C2554      C2555   1.355       .  A
C2554      H2557   1.083       .  S
C2555      C2556   1.375   1_455  A
C2555      H2558   1.083       .  S
C2556      C2832   1.464       .  S
N2559      C2560   1.362       .  A
N2559      C2566   1.456       .  S
C2560      C2609   1.463       .  S
C2561      C2562   1.363       .  A
C2561      H2564   1.083   1_554  S
C2562      C2563   1.375       .  A
C2562      H2565   1.083       .  S
C2563      C2814   1.478       .  S
C2566      N2567   1.374       .  A
C2566      N2571   1.366       .  A
N2567      C2568   1.372       .  A
C2568      N2569   1.365       .  A
N2569      C2570   1.344       .  A
C2570      N2571   1.363       .  A
N2572      C2573   1.368       .  A
N2572      C2588   1.448       .  S
C2573      C2620   1.475       .  S
C2574      C2575   1.366       .  A
C2574      H2577   1.084       .  S
C2575      C2576   1.370       .  A
C2575      H2578   1.077       .  S
C2576      C2655   1.463       .  S
N2579      C2583   1.362       .  A
N2579      C2580   1.359       .  A
N2579      C2586   1.445       .  S
C2580      C2581   1.384       .  A
C2580      C2659   1.471       .  S
C2581      C2582   1.371       .  A
C2581      H2584   1.082       .  S
C2582      C2583   1.396       .  A
C2582      H2585   1.083       .  S
C2583      C2606   1.486       .  S
C2586      N2587   1.369       .  A
C2586      N2591   1.371       .  A
N2587      C2588   1.344       .  A
C2588      N2589   1.355       .  A
N2589      C2590   1.359       .  A
C2590      N2591   1.368       .  A
C2590      N2592   1.447       .  S
N2592      C2596   1.363       .  A
N2592      C2593   1.367       .  A
C2593      C2594   1.384       .  A
C2593      C2673   1.465       .  S
C2594      C2595   1.357       .  A
C2595      C2596   1.376       .  A
C2595      H2598   1.083       .  S
C2596      C2602   1.477       .  S
O2599      C2620   1.283       .  A
O2600      C2609   1.263       .  A
O2600     Ni2623   1.900       .  S
O2601     Ni2623   1.876   1_556  S
O2601      H2624   0.967       .  S
C2602      O2619   1.269       .  A
C2602      O2611   1.274       .  A
O2603      C2609   1.268   1_556  A
O2604      C2606   1.273       .  A
Ni2605     O2608   1.943       .  S
C2606      O2616   1.281       .  A
O2607      C2613   1.280       .  A
O2607     Ni2623   1.905       .  S
O2610      C2612   1.277       .  A
O2611     Ni2622   1.932       .  S
H2614      O2615   0.966       .  S
O2615     Ni2617   1.892       .  S
O2615     Ni2622   1.901       .  S
Ni2617     O2619   1.897       .  S
C2620      O2621   1.274       .  A
N2625      C2629   1.370       .  A
N2625      C2626   1.367       .  A
N2625      C2650   1.446       .  S
C2626      C2627   1.384       .  A
C2626      C2712   1.478       .  S
C2627      C2628   1.348       .  A
C2627      H2630   1.081       .  S
C2628      C2629   1.378       .  A
C2628      H2631   1.082       .  S
C2629      C2666   1.478       .  S
N2632      C2636   1.364       .  A
C2633      C2662   1.473       .  S
C2634      C2635   1.356       .  A
C2635      C2636   1.372       .  A
C2635      H2638   1.083       .  S
C2636      C2708   1.457       .  S
N2639      C2640   1.363       .  A
C2640      C2641   1.375       .  A
C2640      C2665   1.480       .  S
C2641      H2644   1.074       .  S
C2642      C2643   1.378       .  A
C2642      H2645   1.084       .  S
C2643      C2726   1.480       .  S
C2646      N2647   1.373       .  A
N2647      C2648   1.373       .  A
O2652      C2673   1.270       .  A
O2653      C2662   1.267       .  A
O2653     Ni2676   1.914       .  S
O2654     Ni2658   1.926       .  S
O2654     Ni2676   1.895       .  S
O2654     Ni2670   1.932       .  S
O2654      H2677   0.966       .  S
C2655      O2672   1.269       .  A
C2655      O2664   1.269       .  A
O2656      C2662   1.268       .  A
O2656     Ni2675   1.925       .  S
O2657      C2659   1.269       .  A
O2657     Ni2675   1.909       .  S
Ni2658     O2661   1.960       .  S
Ni2658     O2663   1.911       .  S
C2659      O2669   1.274       .  A
O2660      C2666   1.272       .  A
O2660     Ni2676   1.890       .  S
O2661      C2666   1.280       .  A
O2663      C2665   1.268       .  A
O2664     Ni2675   1.927       .  S
C2665      O2671   1.276       .  A
H2667      O2668   0.966       .  S
O2668     Ni2676   1.919       .  S
O2668     Ni2670   1.918       .  S
O2668     Ni2675   1.939       .  S
O2669     Ni2670   1.933       .  S
Ni2670     O2674   1.915       .  S
Ni2670     O2672   1.906       .  S
O2671     Ni2676   1.941       .  S
N2678      C2682   1.367       .  A
N2678      C2679   1.366       .  A
N2678      C2699   1.461       .  S
C2679      C2680   1.385       .  A
C2679      C2719   1.490       .  S
C2680      C2681   1.372       .  A
C2680      H2683   1.083       .  S
C2681      C2682   1.395       .  A
C2681      H2684   1.084       .  S
C2682      C2765   1.507       .  S
N2685      C2703   1.446   1_455  S
C2686      C2687   1.368       .  A
C2686      C2718   1.468       .  S
C2687      C2688   1.358       .  A
C2687      H2690   1.072       .  S
C2688      C2689   1.382       .  A
C2688      H2691   1.084       .  S
C2689      C2779   1.460       .  S
N2692      C2696   1.355       .  A
N2692      C2693   1.368       .  A
N2692      C2701   1.441       .  S
C2693      C2761   1.475       .  S
C2694      C2695   1.357       .  A
C2694      H2697   1.083       .  S
C2695      H2698   1.083       .  S
C2699      N2700   1.377       .  A
C2699      N2704   1.380       .  A
N2700      C2701   1.372       .  A
C2701      N2702   1.342       .  A
N2702      C2703   1.343       .  A
C2703      N2704   1.357       .  A
O2705      C2726   1.283       .  A
O2705     Ni2711   1.957       .  S
O2706      C2715   1.261       .  A
O2706     Ni2729   1.892       .  S
O2707     Ni2711   1.910       .  S
O2707     Ni2729   1.891       .  S
O2707     Ni2723   1.916       .  S
O2707      H2730   0.965       .  S
C2708      O2725   1.276       .  A
C2708      O2717   1.282       .  A
O2709      C2715   1.270       .  A
O2709     Ni2728   1.924       .  S
O2710      C2712   1.266       .  A
O2710     Ni2728   1.941       .  S
Ni2711     O2714   1.939       .  S
Ni2711     O2716   1.935       .  S
C2712      O2722   1.259       .  A
O2713      C2719   1.281       .  A
O2713     Ni2729   1.933       .  S
O2714      C2719   1.279       .  A
O2716      C2718   1.276       .  A
O2717     Ni2728   1.945       .  S
C2718      O2724   1.264       .  A
H2720      O2721   0.967       .  S
O2721     Ni2729   1.900       .  S
O2721     Ni2723   1.893       .  S
O2721     Ni2728   1.910       .  S
O2722     Ni2723   1.905       .  S
Ni2723     O2727   1.905       .  S
Ni2723     O2725   1.900       .  S
O2724     Ni2729   1.903       .  S
C2726      O2727   1.263       .  A
N2731      C2735   1.365       .  A
N2731      C2732   1.364       .  A
N2731      C2752   1.459       .  S
C2732      C2733   1.386       .  A
C2732      C2840   1.494       .  S
C2733      C2734   1.371       .  A
C2733      H2736   1.083       .  S
C2734      C2735   1.394       .  A
C2734      H2737   1.083       .  S
C2735      C2771   1.498       .  S
N2738      C2742   1.371       .  A
N2738      C2739   1.362       .  A
N2738      C2754   1.442       .  S
C2740      C2741   1.353       .  A
C2740      H2743   1.062       .  S
C2741      H2744   1.083       .  S
C2742      C2768   1.467       .  S
N2745      C2749   1.347   1_565  A
N2745      C2746   1.366   1_565  A
N2745      C2756   1.439       .  S
C2746      C2747   1.384       .  A
C2746      C2772   1.474   1_545  S
C2748      H2751   1.083       .  S
C2752      N2753   1.379       .  A
C2752      N2757   1.375       .  A
N2753      C2754   1.356       .  A
C2754      N2755   1.343       .  A
N2755      C2756   1.340       .  A
C2756      N2757   1.372       .  A
O2758      C2779   1.270       .  A
O2758     Ni2764   1.934       .  S
O2759      C2768   1.271       .  A
O2759     Ni2782   1.904       .  S
O2760     Ni2764   1.884       .  S
O2760     Ni2776   1.898       .  S
O2760      H2783   0.966       .  S
C2761      O2770   1.280       .  A
O2762      C2768   1.274       .  A
O2762     Ni2781   1.947       .  S
O2763      C2765   1.271       .  A
O2763     Ni2781   1.903       .  S
Ni2764     O2767   1.934       .  S
C2765      O2775   1.279       .  A
O2766      C2772   1.274   1_545  A
O2767      C2772   1.279       .  A
O2769      C2771   1.270       .  A
C2771      O2777   1.276       .  A
O2774     Ni2782   1.903       .  S
O2774     Ni2781   1.889       .  S
Ni2776     O2780   1.906       .  S
C2779      O2780   1.272       .  A
N2784      C2788   1.354   1_545  A
N2784      C2785   1.363       .  A
C2785      C2786   1.376       .  A
C2786      C2787   1.371       .  A
C2786      H2789   1.083       .  S
C2787      C2788   1.390   1_545  A
C2787      H2790   1.083       .  S
C2788      C2824   1.481       .  S
N2791      C2795   1.348       .  A
N2791      C2792   1.357       .  A
N2791      C2807   1.439       .  S
C2792      C2793   1.375       .  A
C2792      C2825   1.473       .  S
C2793      C2794   1.371       .  A
C2793      H2796   1.083       .  S
C2794      C2795   1.389       .  A
C2794      H2797   1.081       .  S
C2795      C2850   1.464       .  S
N2798      C2802   1.358       .  A
N2798      C2799   1.364       .  A
N2798      C2809   1.431       .  S
C2799      C2800   1.381       .  A
C2799      C2847   1.465       .  S
C2800      C2801   1.371       .  A
C2800      H2803   1.083       .  S
C2801      C2802   1.378       .  A
C2801      H2804   1.080       .  S
C2802      C2821   1.474       .  S
C2805      N2810   1.361   1_545  A
N2806      C2807   1.360       .  A
N2808      C2809   1.359   1_545  A
C2809      N2810   1.362       .  A
O2811      C2832   1.275       .  A
O2811     Ni2817   1.924       .  S
O2812      C2821   1.253       .  A
O2812     Ni2835   1.875       .  S
O2813     Ni2817   1.908       .  S
O2813     Ni2835   1.891       .  S
O2813     Ni2829   1.904       .  S
O2813      H2836   0.966       .  S
C2814      O2831   1.273       .  A
C2814      O2823   1.292       .  A
O2815      C2821   1.286       .  A
O2815     Ni2834   1.989       .  S
O2816      C2818   1.272       .  A
O2816     Ni2834   1.939       .  S
Ni2817     O2820   1.929       .  S
Ni2817     O2822   1.950       .  S
C2818      O2828   1.277       .  A
O2819      C2825   1.272       .  A
O2819     Ni2835   1.915       .  S
O2820      C2825   1.276       .  A
O2822      C2824   1.274       .  A
O2823     Ni2834   1.974       .  S
C2824      O2830   1.260       .  A
H2826      O2827   0.966       .  S
O2827     Ni2835   1.879       .  S
O2827     Ni2829   1.886       .  S
O2827     Ni2834   1.903       .  S
O2828     Ni2829   1.925       .  S
Ni2829     O2833   1.910       .  S
Ni2829     O2831   1.895       .  S
O2830     Ni2835   1.885       .  S
C2832      O2833   1.268       .  A
O2837     Ni2843   1.929       .  S
O2838     Ni2861   1.881       .  S
O2839     Ni2861   1.898       .  S
O2839     Ni2855   1.904       .  S
O2839      H2862   0.966       .  S
C2840      O2857   1.289       .  A
C2840      O2849   1.289       .  A
O2841      C2847   1.291       .  A
Ni2843     O2846   1.938       .  S
C2844      O2854   1.257   1_455  A
O2845      C2851   1.277       .  A
O2845     Ni2861   1.921       .  S
O2848      C2850   1.268       .  A
O2849     Ni2860   1.953       .  S
C2850      O2856   1.262       .  A
H2852      O2853   0.963       .  S
O2853     Ni2861   1.886       .  S
O2853     Ni2855   1.859       .  S
O2853     Ni2860   1.900       .  S
O2854     Ni2855   1.904       .  S
Ni2855     O2859   1.875       .  S
Ni2855     O2857   1.938       .  S
O2856     Ni2861   1.891       .  S
C2858      O2859   1.254       .  A
