geometry optimzed in LAMMPS
_audit_creation_date              2020-12-01 
_audit_creation_method            'lammps2cif' 
_symmetry_space_group_name_H-M    'P1' 
_symmetry_Int_Tables_number       1 
_symmetry_cell_setting            triclinic 
loop_ 
_symmetry_equiv_pos_as_xyz 
  x,y,z 
_cell_length_a                    42.40438208 
_cell_length_b                    45.0507270744563 
_cell_length_c                    43.82002998761871 
_cell_angle_alpha                 90.33203393545361 
_cell_angle_beta                  89.86335227563636 
_cell_angle_gamma                 90.16250671470527 
loop_ 
_atom_site_label 
_atom_site_type_symbol 
_atom_site_fract_x 
_atom_site_fract_y 
_atom_site_fract_z 
_atom_site_charge 
C1          C  0.53472222  0.24899314  0.12775219     0.29900
C2          C  0.48192733  0.21440246  0.12097844     0.29900
C3          C  0.51078434  0.24958225  0.15395682    -0.06300
C4          C  0.51401028  0.25645252  0.09995105    -0.07100
C5          C  0.54097277  0.21562086  0.12233176    -0.06900
C6          C  0.48392219  0.23190169  0.15123521    -0.06300
C7          C  0.48632918  0.23875250  0.09704996    -0.07100
C8          C  0.51380146  0.19773304  0.12019946    -0.06900
C9          C  0.46088246  0.24604537  0.16868289    -0.32300
N10         N  0.47286792  0.27122311  0.18098221     0.14200
C11         C  0.50297364  0.27359296  0.17184358    -0.32300
H12         H  0.51699751  0.29351709  0.17447911     0.16100
C13         C  0.47898791  0.23712442  0.06668230    -0.31300
N14         N  0.50081787  0.25238749  0.05100042     0.12900
C15         C  0.52296998  0.26296416  0.07032370    -0.31300
C16         C  0.52191029  0.17129270  0.13399242    -0.31600
N17         N  0.55252147  0.17178663  0.14230397     0.13400
H18         H  0.50546245  0.15476926  0.14201143     0.16000
C19         C  0.56477650  0.19796883  0.13325493    -0.31600
H20         H  0.58821691  0.20541139  0.13925488     0.16000
H21         H  0.54562116  0.27155634  0.06310995     0.16000
H22         H  0.43644483  0.23981398  0.17086140     0.16100
H23         H  0.46182656  0.22237093  0.05634234     0.16000
C24         C  0.95266558  0.48978174  0.12646426     0.29900
C25         C  0.99530888  0.03278382  0.13324584     0.29900
C26         C  0.97155390  0.48908877  0.15634945    -0.06300
C27         C  0.97898184  0.49117053  0.10185675    -0.07100
C28         C  0.93845685  0.02147340  0.12569060    -0.06900
C29         C  0.99406455  0.51111200  0.16008495    -0.06300
C30         C  0.99939198  0.01361973  0.10404861    -0.07100
C31         C  0.96101198  0.04329125  0.12981823    -0.06900
C32         C  0.01756361  0.49966616  0.17839010    -0.32300
N33         N  0.00931523  0.47197927  0.18682395     0.14200
C34         C  0.98145799  0.46535066  0.17372815    -0.32300
H35         H  0.97084165  0.44361756  0.17481048     0.16100
C36         C  0.00890017  0.02187227  0.07516991    -0.31300
N37         N  0.99328043  0.00524779  0.05436920     0.12900
C38         C  0.97628184  0.48727849  0.07063585    -0.31300
C39         C  0.94534002  0.06982741  0.13333672    -0.31600
N40         N  0.91369705  0.06480792  0.13378813     0.13400
H41         H  0.95645767  0.09068195  0.13919269     0.16000
C42         C  0.90969069  0.03587130  0.12549540    -0.31600
H43         H  0.88713981  0.02568160  0.12095201     0.16000
H44         H  0.95894414  0.47372351  0.05895696     0.16000
H45         H  0.04003509  0.51003458  0.18338222     0.16100
H46         H  0.02427840  0.04023221  0.06948454     0.16000
C47         C  0.49929192  0.28206160  0.44262229     0.29900
C48         C  0.54340597  0.23786142  0.44528020     0.29900
C49         C  0.53365879  0.29221439  0.44620616    -0.06300
C50         C  0.49382859  0.26085248  0.97083370    -0.07100
C51         C  0.49952976  0.25983659  0.41627834    -0.06900
C52         C  0.55639815  0.27009830  0.44544543    -0.06300
C53         C  0.51679717  0.23783240  0.97239075    -0.07100
C54         C  0.52197585  0.23753573  0.41692207    -0.06900
C55         C  0.58342566  0.28454634  0.43587747    -0.32300
N56         N  0.57888379  0.31453164  0.43536985     0.14200
C57         C  0.54836750  0.31912724  0.44327522    -0.32300
H58         H  0.53610283  0.33998065  0.44327246     0.16100
C59         C  0.52228417  0.23319181  0.00301406    -0.31300
N60         N  0.50326915  0.25139152  0.01923867     0.12900
C61         C  0.48655877  0.26867466  0.00034358    -0.31300
C62         C  0.50981649  0.21437196  0.39934662    -0.31600
N63         N  0.48058474  0.22151306  0.38964300     0.13400
H64         H  0.52100319  0.19342387  0.39460683     0.16000
C65         C  0.47412840  0.24897575  0.40029238    -0.31600
H66         H  0.45123679  0.25945622  0.39904758     0.16000
H67         H  0.47260193  0.28748874  0.00767403     0.16000
H68         H  0.60296286  0.27378119  0.42473832     0.16100
H69         H  0.54047639  0.21939152  0.01275424     0.16000
C70         C  0.02891661  0.47490807  0.45613835     0.29900
C71         C  0.97381180  0.00462534  0.44627378     0.29900
C72         C  0.99734986  0.45807343  0.45124659    -0.06300
C73         C  0.02250104  0.49368969  0.98037347    -0.07100
C74         C  0.02689377  0.98924531  0.42614547    -0.06900
C75         C  0.97062764  0.47535375  0.44811997    -0.06300
C76         C  0.99644471  0.01174995  0.97260763    -0.07100
C77         C  0.00026623  0.00688359  0.42261749    -0.06900
C78         C  0.94620122  0.45737084  0.43900728    -0.32300
N79         N  0.95787934  0.43019057  0.43261488     0.14200
C80         C  0.98892259  0.43047016  0.43996226    -0.32300
H81         H  0.00507134  0.41336253  0.43253785     0.16100
C82         C  0.98207237  0.01732177  0.00058578    -0.31300
N83         N  0.00255389  0.50664994  0.02506228     0.12900
C84         C  0.02567293  0.49098664  0.01136293    -0.31300
C85         C  0.00943356  0.03244644  0.40812742    -0.31600
N86         N  0.04010823  0.03111848  0.40079967     0.13400
H87         H  0.99539949  0.05239521  0.40699164     0.16000
C88         C  0.05116438  0.00507228  0.41172241    -0.31600
H89         H  0.07560574  0.99888268  0.41008971     0.16000
H90         H  0.04124504  0.47586164  0.02306428     0.16000
H91         H  0.92328708  0.46503384  0.43165616     0.16100
H92         H  0.95933635  0.02758296  0.00425413     0.16000
O93         O  0.69443420  0.36585416  0.24868793    -0.81900
C94         C  0.56393789  0.37832515  0.26524747     0.97500
O95         O  0.57762962  0.38759138  0.24092035    -0.71000
O96         O  0.62709904  0.42182488  0.24978654    -0.71800
Al97       Al  0.62316558  0.38557177  0.22858803     1.49000
C98         C  0.64831300  0.43132021  0.26719345     0.92700
O99         O  0.64603456  0.37555059  0.31889106    -0.80800
O100        O  0.64202989  0.30515521  0.26271247    -0.74400
Al101      Al  0.66860376  0.37022571  0.28222132     1.90100
O102        O  0.61957717  0.33398712  0.31412524    -0.73400
O103        O  0.59306903  0.32327142  0.23187424    -0.73300
O104        O  0.57600085  0.35777600  0.28067243    -0.79000
O105        O  0.61739974  0.35301716  0.20080542    -0.77200
O106        O  0.63382783  0.36312517  0.26042950    -1.13300
O107        O  0.66697372  0.38755275  0.21241497    -0.72500
C108        C  0.69259862  0.37621093  0.22227372     0.98200
C109        C  0.63040153  0.35482628  0.33047482     0.94600
Al110      Al  0.60963250  0.33271387  0.27125043     1.55600
O111        O  0.66776341  0.41334007  0.27876697    -0.77100
C112        C  0.60162223  0.32982517  0.20522318     0.98800
C113        C  0.66724595  0.30437687  0.27784747     0.93700
O114        O  0.67775166  0.32790998  0.29061390    -0.82400
O115        O  0.68852740  0.10826630  0.32365755    -0.81900
C116        C  0.55853392  0.11316657  0.31996843     0.97500
O117        O  0.57764102  0.09187967  0.32535495    -0.71000
O118        O  0.63481651  0.06455465  0.32666689    -0.74600
Al119      Al  0.61896449  0.09909217  0.34620410     1.49000
C120        C  0.64280005  0.05867156  0.29982137     0.92700
O121        O  0.63675164  0.13090404  0.25688952    -0.80800
O122        O  0.63671683  0.18510059  0.30531489    -0.74400
Al123      Al  0.66050510  0.11991225  0.29180332     1.90100
O124        O  0.59384222  0.15141870  0.27607522    -0.73400
O125        O  0.61499109  0.16897137  0.35779144    -0.73300
O126        O  0.56687588  0.13901289  0.32782020    -0.79000
O127        O  0.60061128  0.12607327  0.37599104    -0.77200
O128        O  0.62883646  0.12598971  0.31800160    -1.13300
O129        O  0.65953783  0.10545494  0.36603322    -0.72500
C130        C  0.68626521  0.10747945  0.35257456     0.98200
C131        C  0.60933725  0.14134985  0.25369597     0.94600
Al132      Al  0.60524234  0.15844990  0.31672483     1.55600
O133        O  0.64869021  0.07956704  0.28172206    -0.77100
C134        C  0.60537219  0.15355279  0.37982506     0.98800
C135        C  0.66539321  0.18397492  0.29895262     0.93700
O136        O  0.67888897  0.15925641  0.29558877    -0.82400
O137        O  0.31739478  0.38421132  0.31364329    -0.81900
C138        C  0.44243886  0.38909297  0.32026366     0.97500
O139        O  0.42135336  0.40865508  0.32654648    -0.71000
O140        O  0.36141891  0.43123801  0.32544993    -0.74600
Al141      Al  0.38070857  0.39878393  0.34480670     1.49000
C142        C  0.36179987  0.43813621  0.29803278     0.92700
O143        O  0.38215102  0.36649904  0.25464324    -0.80800
O144        O  0.36445973  0.31139901  0.31770888    -0.74400
Al145      Al  0.35119814  0.37554967  0.28536026     1.90100
O146        O  0.40915633  0.33389322  0.28086491    -0.73400
O147        O  0.39140178  0.33374120  0.36437737    -0.73300
O148        O  0.43736076  0.36135974  0.32462209    -0.79000
O149        O  0.40338093  0.37827941  0.37650564    -0.77200
O150        O  0.37666739  0.37032459  0.31682800    -1.13300
O151        O  0.33921580  0.38803143  0.36047584    -0.72500
C152        C  0.31505946  0.38466973  0.34285465     0.98200
C153        C  0.40319432  0.34678322  0.25628565     0.94600
Al154      Al  0.39884374  0.33777296  0.32165134     1.55600
O155        O  0.36228155  0.41737783  0.27857928    -0.77100
C156        C  0.40425605  0.35122302  0.38258733     0.98800
C157        C  0.34302517  0.31107968  0.29792926     0.93700
O158        O  0.33604108  0.33460726  0.28368311    -0.82400
O159        O  0.31843150  0.11684920  0.25131647    -0.81900
C160        C  0.44420758  0.11522915  0.24291127     0.97500
O161        O  0.42447188  0.09415541  0.23754735    -0.71000
O162        O  0.36589686  0.06938965  0.24120354    -0.74600
Al163      Al  0.38255724  0.10167632  0.21974697     1.49000
C164        C  0.36254311  0.06373351  0.26874237     0.92700
O165        O  0.38367691  0.13740633  0.30850232    -0.80800
O166        O  0.36566227  0.19027114  0.24562455    -0.74400
Al167      Al  0.35229247  0.12674396  0.27872164     1.90100
O168        O  0.41162119  0.16815873  0.28023812    -0.73400
O169        O  0.38792181  0.16660132  0.19862755    -0.73300
O170        O  0.43795803  0.14151306  0.23385657    -0.79000
O171        O  0.40151695  0.12258392  0.18560112    -0.77200
O172        O  0.37773242  0.13098249  0.24675099    -1.13300
O173        O  0.34019808  0.10996810  0.20481274    -0.72500
C174        C  0.31614606  0.11463564  0.22224764     0.98200
C175        C  0.40455485  0.15736128  0.30571630     0.94600
Al176      Al  0.39921386  0.16378295  0.24003849     1.55600
O177        O  0.36227536  0.08515271  0.28739825    -0.77100
C178        C  0.39732061  0.14920346  0.17847333     0.98800
C179        C  0.34381198  0.19076656  0.26488043     0.93700
O180        O  0.33666061  0.16741861  0.27929375    -0.82400
O181        O  0.17697640  0.37073388  0.31827062    -0.81900
C182        C  0.05427422  0.35768088  0.33580189     0.97500
O183        O  0.07757989  0.34047181  0.34070180    -0.71000
O184        O  0.13772891  0.32357460  0.33196016    -0.74600
Al185      Al  0.11848022  0.35427110  0.35519175     1.49000
C186        C  0.13528496  0.31750949  0.30420588     0.92700
O187        O  0.10731784  0.39048067  0.26522456    -0.80800
O188        O  0.11827504  0.44256236  0.32272838    -0.74400
Al189      Al  0.14022597  0.37996570  0.29378650     1.90100
O190        O  0.07268308  0.41148655  0.29551921    -0.73400
O191        O  0.10475592  0.41970328  0.37348945    -0.73300
O192        O  0.05583691  0.38479209  0.34452385    -0.79000
O193        O  0.09978434  0.37517293  0.39021258    -0.77200
O194        O  0.11658535  0.38272489  0.32709429    -1.13300
O195        O  0.16032712  0.36772145  0.36677330    -0.72500
C196        C  0.18255065  0.37041600  0.34698916     0.98200
C197        C  0.08152813  0.40408522  0.26938508     0.94600
Al198      Al  0.08999944  0.41216187  0.33373572     1.55600
O199        O  0.12977777  0.33837763  0.28583282    -0.77100
C200        C  0.10115828  0.40265100  0.39548332     0.98800
C201        C  0.14280448  0.44349650  0.30658517     0.93700
O202        O  0.15428034  0.42028561  0.29484715    -0.82400
O203        O  0.18662601  0.13033934  0.25642894    -0.81900
C204        C  0.05852754  0.14412839  0.26231175     0.97500
O205        O  0.07464361  0.15508648  0.24008781    -0.71000
O206        O  0.12830717  0.18323630  0.24837959    -0.74600
Al207      Al  0.11911059  0.14792117  0.22748828     1.49000
C208        C  0.14084917  0.19092512  0.27297210     0.92700
O209        O  0.12660660  0.12699024  0.32151387    -0.80800
O210        O  0.13073816  0.06597553  0.25419090    -0.74400
Al211      Al  0.15512684  0.12834753  0.28665093     1.90100
O212        O  0.10515212  0.08597166  0.30571772    -0.73400
O213        O  0.08146543  0.08992912  0.22572731    -0.73300
O214        O  0.06639717  0.12008948  0.27516749    -0.79000
O215        O  0.10808504  0.11889836  0.19655744    -0.77200
O216        O  0.12460689  0.12358457  0.25908300    -1.13300
O217        O  0.16268018  0.14314061  0.21359097    -0.72500
C218        C  0.18733618  0.13542382  0.22813599     0.98200
C219        C  0.10989515  0.10434172  0.32655463     0.94600
Al220      Al  0.09845322  0.09336643  0.26432413     1.55600
O221        O  0.15223669  0.17130003  0.29019996    -0.77100
C222        C  0.08717809  0.09955646  0.19980246     0.98800
C223        C  0.15378515  0.06316008  0.27246871     0.93700
O224        O  0.16387814  0.08535053  0.28813801    -0.82400
O225        O  0.81887706  0.36240723  0.25402434    -0.81900
C226        C  0.94722613  0.35398597  0.25452645     0.97500
O227        O  0.92515847  0.33603881  0.24724715    -0.71000
O228        O  0.86569193  0.31556023  0.24803863    -0.74600
Al229      Al  0.88531715  0.34842784  0.22814974     1.49000
C230        C  0.85953971  0.31015508  0.27549143     0.92700
O231        O  0.87488880  0.38242936  0.31981686    -0.80800
O232        O  0.87957101  0.43481296  0.27215448    -0.74400
Al233      Al  0.84933966  0.37219175  0.28490407     1.90100
O234        O  0.91928761  0.39704855  0.29895279    -0.73400
O235        O  0.89911530  0.41700390  0.21963903    -0.73300
O236        O  0.94420614  0.38114682  0.24781426    -0.79000
O237        O  0.90583227  0.37407485  0.19773412    -0.77200
O238        O  0.88048084  0.37552093  0.25770179    -1.13300
O239        O  0.84527286  0.35942804  0.21018947    -0.72500
C240        C  0.81951879  0.36259009  0.22499919     0.98200
C241        C  0.90333131  0.39078360  0.32214193     0.94600
Al242      Al  0.90819703  0.40507676  0.25939894     1.55600
O243        O  0.85817505  0.33134348  0.29433862    -0.77100
C244        C  0.90297905  0.40195359  0.19575585     0.98800
C245        C  0.85074533  0.43568861  0.27869217     0.93700
O246        O  0.83484063  0.41219444  0.28093648    -0.82400
O247        O  0.81053437  0.11844638  0.32798797    -0.81900
C248        C  0.93849786  0.14183655  0.31124108     0.97500
O249        O  0.92468226  0.14852439  0.33651905    -0.71000
O250        O  0.87154637  0.17789672  0.33011994    -0.74600
Al251      Al  0.87982310  0.14160640  0.34943727     1.49000
C252        C  0.85189049  0.18569571  0.31038746     0.92700
O253        O  0.85805581  0.12905285  0.25681119    -0.80800
O254        O  0.87080212  0.06154493  0.31422402    -0.74400
Al255      Al  0.83646639  0.12328548  0.29449281     1.90100
O256        O  0.88789455  0.09029293  0.26229349    -0.73400
O257        O  0.91878609  0.08501089  0.34337095    -0.73300
O258        O  0.92827025  0.12103793  0.29461805    -0.79000
O259        O  0.88909006  0.10859792  0.37557253    -0.77200
O260        O  0.87154852  0.11935455  0.31644522    -1.13300
O261        O  0.83664487  0.13855019  0.36623886    -0.72500
C262        C  0.81185288  0.12645550  0.35536670     0.98200
C263        C  0.87430857  0.10869731  0.24528066     0.94600
Al264      Al  0.89912017  0.09201914  0.30475544     1.55600
O265        O  0.83512318  0.16638801  0.29684995    -0.77100
C266        C  0.90831633  0.08813350  0.37009563     0.98800
C267        C  0.84477032  0.05782285  0.30079647     0.93700
O268        O  0.83091027  0.07973985  0.28811563    -0.82400
C269        C  0.85431411  0.27869500  0.28513448    -0.05600
C270        C  0.86018031  0.27014867  0.31535153    -0.33000
C271        C  0.85815510  0.24021681  0.32411792     0.36300
C272        C  0.84980971  0.21792855  0.30264623    -0.05900
C273        C  0.84229412  0.22667920  0.27285997    -0.32900
C274        C  0.84458727  0.25658539  0.26401980     0.36200
H275        H  0.86740911  0.28659634  0.33208117     0.16500
O276        O  0.86509145  0.23297041  0.35370394    -0.60400
H277        H  0.83581990  0.21012058  0.25595561     0.16600
O278        O  0.83778569  0.26381443  0.23440548    -0.60500
H279        H  0.81476169  0.26759793  0.23418816     0.43600
H280        H  0.84443026  0.23212590  0.36431904     0.43500
C281        C  0.83697638  0.46484700  0.28613349    -0.05600
C282        C  0.82665379  0.48370073  0.26284090    -0.33000
C283        C  0.82251313  0.01475382  0.27021530     0.36300
C284        C  0.83341652  0.02663258  0.29814628    -0.05900
C285        C  0.84163660  0.00685174  0.32153347    -0.32900
C286        C  0.84124115  0.47646479  0.31567319     0.36200
H287        H  0.82320763  0.47499203  0.23998620     0.16500
O288        O  0.81261445  0.03306730  0.24736846    -0.60400
H289        H  0.84965379  0.01536202  0.34337931     0.16600
O290        O  0.85107864  0.45850280  0.33894890    -0.60500
H291        H  0.83164475  0.44875864  0.34662238     0.43600
H292        H  0.79022583  0.03739405  0.25215707     0.43500
C293        C  0.02911178  0.15800556  0.27400926    -0.05600
C294        C  0.00263003  0.15944611  0.25518292    -0.33000
C295        C  0.97223998  0.15930114  0.26795828     0.36300
C296        C  0.96794511  0.15634420  0.29992582    -0.05900
C297        C  0.99437582  0.15962243  0.31880141    -0.32900
C298        C  0.02480948  0.16125050  0.30591038     0.36200
H299        H  0.00531527  0.15752881  0.23065210     0.16500
O300        O  0.94681569  0.15834658  0.24872651    -0.60400
H301        H  0.99181402  0.15806618  0.34334074     0.16600
O302        O  0.05046752  0.16291217  0.32484766    -0.60500
H303        H  0.05876593  0.18337041  0.32246600     0.43600
H304        H  0.93613202  0.17773761  0.25145446     0.43500
C305        C  0.02718696  0.34788705  0.31577594    -0.05600
C306        C  0.03180783  0.34600834  0.28390163    -0.33000
C307        C  0.00605304  0.34541908  0.26333230     0.36300
C308        C  0.97475186  0.34512590  0.27429956    -0.05900
C309        C  0.97037267  0.34321203  0.30619223    -0.32900
C310        C  0.99608853  0.34517575  0.32675627     0.36200
H311        H  0.05548833  0.34754768  0.27475380     0.16500
O312        O  0.01176281  0.34773056  0.23263717    -0.60400
H313        H  0.94665913  0.34272311  0.31537130     0.16600
O314        O  0.99033187  0.34637777  0.35752359    -0.60500
H315        H  0.99203980  0.32557703  0.36457241     0.43600
H316        H  0.01348712  0.32698285  0.22517068     0.43500
C317        C  0.13865720  0.28567462  0.29461229    -0.05600
C318        C  0.15408488  0.26552017  0.31413202    -0.33000
C319        C  0.15551748  0.23491967  0.30746506     0.36300
C320        C  0.14124114  0.22350296  0.28082914    -0.05900
C321        C  0.12624489  0.24383299  0.26111444    -0.32900
C322        C  0.12477394  0.27438565  0.26783288     0.36200
H323        H  0.16492778  0.27348190  0.33500592     0.16500
O324        O  0.17030053  0.21642193  0.32760048    -0.60400
H325        H  0.11490108  0.23599453  0.24045624     0.16600
O326        O  0.10877817  0.29277302  0.24846395    -0.60500
H327        H  0.08709934  0.29402190  0.25692993     0.43600
H328        H  0.19255271  0.21560161  0.32063718     0.43500
C329        C  0.15599500  0.47285842  0.29922759    -0.05600
C330        C  0.15825650  0.48105430  0.26845698    -0.33000
C331        C  0.16461069  0.00990465  0.25825840     0.36300
C332        C  0.16374680  0.03269824  0.28039735    -0.05900
C333        C  0.16409344  0.02498241  0.31142933    -0.32900
C334        C  0.15932805  0.49473236  0.32206973     0.36200
H335        H  0.15513599  0.46450462  0.25065523     0.16500
O336        O  0.16437108  0.01659270  0.22777302    -0.60400
H337        H  0.16301476  0.04214991  0.32882654     0.16600
O338        O  0.15650298  0.48746092  0.35230915    -0.60500
H339        H  0.17775491  0.48062556  0.35845071     0.43600
H340        H  0.18678438  0.02007137  0.22232723     0.43500
C341        C  0.28406842  0.11951202  0.20992965    -0.05600
C342        C  0.27257208  0.14879368  0.20991889    -0.33000
C343        C  0.24002154  0.15463038  0.21150049     0.36300
C344        C  0.21831278  0.13101893  0.21303796    -0.05900
C345        C  0.22966453  0.10179999  0.21012253    -0.32900
C346        C  0.26224020  0.09595696  0.20879605     0.36200
H347        H  0.28898316  0.16719135  0.21198563     0.16500
O348        O  0.22999436  0.18327638  0.21569618    -0.60400
H349        H  0.21339650  0.08330502  0.21214430     0.16600
O350        O  0.27253595  0.06712949  0.20952222    -0.60500
H351        H  0.27337670  0.06190569  0.23146574     0.43600
H352        H  0.22790131  0.19145902  0.19484764     0.43500
C353        C  0.28282191  0.37930351  0.35491000    -0.05600
C354        C  0.26894088  0.35172668  0.34805002    -0.33000
C355        C  0.23610356  0.34800812  0.34827155     0.36300
C356        C  0.21624789  0.37184472  0.35609998    -0.05900
C357        C  0.23008893  0.39898276  0.36507938    -0.32900
C358        C  0.26318785  0.40281341  0.36448645     0.36200
H359        H  0.28353905  0.33363692  0.33981644     0.16500
O360        O  0.22346350  0.32151276  0.33859356    -0.60400
H361        H  0.21518404  0.41789653  0.37010141     0.16600
O362        O  0.27573095  0.43041368  0.36997137    -0.60500
H363        H  0.28469882  0.42934765  0.39081264     0.43600
H364        H  0.22224553  0.32300910  0.31604875     0.43500
C365        C  0.33005438  0.22037461  0.27261926    -0.05600
C366        C  0.32956685  0.24262257  0.25015565    -0.33000
C367        C  0.32889404  0.27289331  0.25816224     0.36300
C368        C  0.32968545  0.28154844  0.28913606    -0.05900
C369        C  0.32646434  0.25934545  0.31142326    -0.32900
C370        C  0.32606416  0.22904735  0.30336851     0.36200
H371        H  0.33260748  0.23660226  0.22634849     0.16500
O372        O  0.33212344  0.29360650  0.23558582    -0.60400
H373        H  0.32708236  0.26540258  0.33538098     0.16600
O374        O  0.32656936  0.20830107  0.32612187    -0.60500
H375        H  0.30454037  0.20102954  0.32770956     0.43600
H376        H  0.31055190  0.30130340  0.23213520     0.43500
C377        C  0.36225314  0.47058663  0.28977762    -0.05600
C378        C  0.36492933  0.47932631  0.25926066    -0.33000
C379        C  0.35576786  0.00881896  0.25555443     0.36300
C380        C  0.35954111  0.03161221  0.27789802    -0.05900
C381        C  0.36139298  0.02300793  0.30855558    -0.32900
C382        C  0.36135555  0.49333192  0.31248162     0.36200
H383        H  0.36610234  0.46266005  0.24137543     0.16500
O384        O  0.35247296  0.01558462  0.22525870    -0.60400
H385        H  0.36392150  0.03973840  0.32624353     0.16600
O386        O  0.35883800  0.48641062  0.34282933    -0.60500
H387        H  0.38080538  0.48629514  0.35055292     0.43600
H388        H  0.32952842  0.01863821  0.22230225     0.43500
C389        C  0.52725384  0.11034700  0.30308268    -0.05600
C390        C  0.51789311  0.08481893  0.28628305    -0.33000
C391        C  0.49069186  0.08508612  0.26697431     0.36300
C392        C  0.47324994  0.11157410  0.26277410    -0.05900
C393        C  0.48256265  0.13644340  0.28001922    -0.32900
C394        C  0.50797424  0.13589179  0.30025388     0.36200
H395        H  0.53191783  0.06482655  0.28764324     0.16500
O396        O  0.48235982  0.05977554  0.25146176    -0.60400
H397        H  0.46974977  0.15706461  0.27828401     0.16600
O398        O  0.51354941  0.16100634  0.31733940    -0.60500
H399        H  0.52327989  0.17543010  0.30308525     0.43600
H400        H  0.46639455  0.04994984  0.26456724     0.43500
C401        C  0.78233683  0.12143608  0.37283264    -0.05600
C402        C  0.76113349  0.14516119  0.37552414    -0.33000
C403        C  0.72835668  0.14024516  0.37364247     0.36300
C404        C  0.71630044  0.11127035  0.36951216    -0.05900
C405        C  0.73727804  0.08732960  0.37116990    -0.32900
C406        C  0.77001927  0.09223457  0.37313393     0.36200
H407        H  0.76992320  0.16775086  0.37461281     0.16500
O408        O  0.70854962  0.16417465  0.37183537    -0.60400
H409        H  0.72864445  0.06493162  0.36750563     0.16600
O410        O  0.79008156  0.06841330  0.37128440    -0.60500
H411        H  0.79092504  0.06292641  0.34934087     0.43600
H412        H  0.71021371  0.17101462  0.35042606     0.43500
C413        C  0.53360666  0.39070868  0.27763724    -0.05600
C414        C  0.53054959  0.39301070  0.30962839    -0.33000
C415        C  0.50106687  0.39634639  0.32386823     0.36300
C416        C  0.47344457  0.39730072  0.30633657    -0.05900
C417        C  0.47656578  0.39823741  0.27424741    -0.32900
C418        C  0.50637396  0.39503938  0.25985238     0.36200
H419        H  0.55110788  0.39028055  0.32387163     0.16500
O420        O  0.49937494  0.39636361  0.35509227    -0.60400
H421        H  0.45555731  0.39877054  0.26023400     0.16600
O422        O  0.50799047  0.39282547  0.22868459    -0.60500
H423        H  0.50937346  0.41358682  0.22140949     0.43600
H424        H  0.50001051  0.41759679  0.36114406     0.43500
C425        C  0.78888102  0.36718260  0.20943493    -0.05600
C426        C  0.77578158  0.39585236  0.20941507    -0.33000
C427        C  0.74296781  0.40000448  0.20692404     0.36300
C428        C  0.72267236  0.37524729  0.20503173    -0.05900
C429        C  0.73627548  0.34698774  0.20096207    -0.32900
C430        C  0.76901839  0.34282929  0.20339265     0.36200
H431        H  0.79062476  0.41484003  0.21461897     0.16500
O432        O  0.73074050  0.42780910  0.21161572    -0.60400
H433        H  0.72116485  0.32754239  0.20036971     0.16600
O434        O  0.78069357  0.31450000  0.20432749    -0.60500
H435        H  0.79150127  0.31153133  0.18446048     0.43600
H436        H  0.72887472  0.43648112  0.19095855     0.43500
C437        C  0.68123785  0.27471785  0.28346229    -0.05600
C438        C  0.68170705  0.26404186  0.31343161    -0.33000
C439        C  0.68152081  0.23340035  0.31919993     0.36300
C440        C  0.68149487  0.21287438  0.29477523    -0.05900
C441        C  0.68547213  0.22359373  0.26497663    -0.32900
C442        C  0.68524615  0.25429555  0.25922733     0.36200
H443        H  0.67827133  0.27922760  0.33230875     0.16500
O444        O  0.67671882  0.22376629  0.34849269    -0.60400
H445        H  0.68493975  0.20824554  0.24584809     0.16600
O446        O  0.68559785  0.26396898  0.22961967    -0.60500
H447        H  0.70724144  0.27169531  0.22625250     0.43600
H448        H  0.69705899  0.22713976  0.35909742     0.43500
C449        C  0.64980646  0.46395312  0.27379864    -0.05600
C450        C  0.66036946  0.47443778  0.30222774    -0.33000
C451        C  0.63491065  0.01662109  0.26185210     0.36300
C452        C  0.64548578  0.02688124  0.29044887    -0.05900
C453        C  0.65729772  0.00602640  0.31134239    -0.32900
C454        C  0.63915371  0.48497823  0.25222180     0.36200
H455        H  0.66870907  0.45889823  0.31915382     0.16500
O456        O  0.62160706  0.03587308  0.24148716    -0.60400
H457        H  0.66524591  0.01336868  0.33363280     0.16600
O458        O  0.62879270  0.47595044  0.22402566    -0.60500
H459        H  0.64783937  0.47597422  0.21085229     0.43600
H460        H  0.63925626  0.04252335  0.22828610     0.43500
C461        C  0.09331345  0.09795795  0.35505396    -0.05600
C462        C  0.06047227  0.09657482  0.35206345    -0.33000
C463        C  0.04289390  0.07493436  0.36690112     0.36300
C464        C  0.05775905  0.05510104  0.38712970    -0.05900
C465        C  0.09020051  0.05881893  0.39298490    -0.32900
C466        C  0.10799732  0.07994983  0.37688640     0.36200
H467        H  0.04893626  0.10876155  0.33412694     0.16500
O468        O  0.01183701  0.07157833  0.35882640    -0.60400
H469        H  0.10212131  0.04440674  0.40887476     0.16600
O470        O  0.14017130  0.08018859  0.37979085    -0.60500
H471        H  0.14479428  0.09691445  0.39390364     0.43600
H472        H  0.01188546  0.05730616  0.34150356     0.43500
C473        C  0.05801159  0.45452837  0.46101161    -0.05600
C474        C  0.08786944  0.46395190  0.45125900    -0.33000
C475        C  0.10583212  0.44529362  0.43230448     0.36300
C476        C  0.09491454  0.41622526  0.42589125    -0.05900
C477        C  0.07181730  0.40431547  0.44529413    -0.32900
C478        C  0.05469778  0.42345707  0.46464375     0.36200
H479        H  0.09521926  0.48667318  0.45492113     0.16500
O480        O  0.13151140  0.45676369  0.41731537    -0.60400
H481        H  0.06485436  0.38124028  0.44329128     0.16600
O482        O  0.03240980  0.41191732  0.48400221    -0.60500
H483        H  0.04028748  0.41628504  0.50483979     0.43600
H484        H  0.15005038  0.44710881  0.42673452     0.43500
C485        C  0.94577557  0.41314816  0.40762829    -0.05600
C486        C  0.96396120  0.41183671  0.38106757    -0.33000
C487        C  0.95058993  0.40403697  0.35347797     0.36300
C488        C  0.91857279  0.39517033  0.35206864    -0.05900
C489        C  0.90083448  0.39412913  0.37918928    -0.32900
C490        C  0.91412614  0.40377900  0.40683787     0.36200
H491        H  0.98802623  0.41997706  0.38095766     0.16500
O492        O  0.96884327  0.40712327  0.32781518    -0.60400
H493        H  0.87618794  0.38776685  0.37867040     0.16600
O494        O  0.89588910  0.40510490  0.43268771    -0.60500
H495        H  0.88231153  0.42280383  0.43012463     0.43600
H496        H  0.96723575  0.42839479  0.32229997     0.43500
C497        C  0.94650457  0.02324037  0.43272317    -0.05600
C498        C  0.93968587  0.05214384  0.44354644    -0.33000
C499        C  0.92542028  0.07351062  0.42432390     0.36300
C500        C  0.91790850  0.06620957  0.39377328    -0.05900
C501        C  0.92170838  0.03688198  0.38417749    -0.32900
C502        C  0.93559016  0.01561892  0.40281030     0.36200
H503        H  0.94822228  0.05919531  0.46567131     0.16500
O504        O  0.92194307  0.10207479  0.43466436    -0.60400
H505        H  0.91583557  0.03066703  0.36091846     0.16600
O506        O  0.94422743  0.98935797  0.38906307    -0.60500
H507        H  0.93416687  0.48173079  0.37987571     0.43600
H508        H  0.90047393  0.10277771  0.44364443     0.43500
C509        C  0.59876155  0.33469357  0.41814622    -0.05600
C510        C  0.62897334  0.32499336  0.40916345    -0.33000
C511        C  0.64166906  0.33388250  0.38130755     0.36300
C512        C  0.62505263  0.35400415  0.36326883    -0.05900
C513        C  0.59941987  0.36919586  0.37561110    -0.32900
C514        C  0.58626968  0.36001154  0.40329039     0.36200
H515        H  0.64099522  0.30780669  0.42172902     0.16500
O516        O  0.66854461  0.32060777  0.37055420    -0.60400
H517        H  0.58807978  0.38656400  0.36273383     0.16600
O518        O  0.56111333  0.37547931  0.41488766    -0.60500
H519        H  0.54387908  0.37315744  0.39977793     0.43600
H520        H  0.68602313  0.33377843  0.37720528     0.43500
C521        C  0.45921645  0.20385761  0.37154374    -0.05600
C522        C  0.43821783  0.21864955  0.35232919    -0.33000
C523        C  0.41846841  0.20305893  0.33287521     0.36300
C524        C  0.41939541  0.17187000  0.33193346    -0.05900
C525        C  0.43881857  0.15653707  0.35221300    -0.32900
C526        C  0.45869355  0.17239794  0.37224144     0.36200
H527        H  0.43794567  0.24264615  0.35129839     0.16500
O528        O  0.39883572  0.21860961  0.31392507    -0.60400
H529        H  0.43969098  0.13251045  0.35153818     0.16600
O530        O  0.47682558  0.15707354  0.39264061    -0.60500
H531        H  0.49323431  0.14700164  0.38019693     0.43600
H532        H  0.41253457  0.22637894  0.29739489     0.43500
C533        C  0.47551386  0.30643016  0.43421858    -0.05600
C534        C  0.44399051  0.30558274  0.44475904    -0.33000
C535        C  0.41992685  0.32114534  0.42929924     0.36300
C536        C  0.42755943  0.33971771  0.40459927    -0.05900
C537        C  0.45897133  0.34225317  0.39570714    -0.32900
C538        C  0.48217946  0.32457299  0.40849659     0.36200
H539        H  0.43735187  0.29048477  0.46278284     0.16500
O540        O  0.38905912  0.31707881  0.43764274    -0.60400
H541        H  0.46502214  0.35507890  0.37578974     0.16600
O542        O  0.51023548  0.32240943  0.39294139    -0.60500
H543        H  0.50612633  0.30874030  0.37555704     0.43600
H544        H  0.38155826  0.30008316  0.42510592     0.43500
C545        C  0.56607023  0.21107151  0.44528464    -0.05600
C546        C  0.55293633  0.18244707  0.44228798    -0.33000
C547        C  0.56753058  0.16129143  0.42334305     0.36300
C548        C  0.59605905  0.16859872  0.40856927    -0.05900
C549        C  0.61291285  0.19350703  0.41898932    -0.32900
C550        C  0.59866820  0.21359666  0.43930026     0.36200
H551        H  0.52889601  0.17841067  0.44964105     0.16500
O552        O  0.55123499  0.13603916  0.41557902    -0.60400
H553        H  0.63664387  0.19771235  0.41083655     0.16600
O554        O  0.61702125  0.23394939  0.45435598    -0.60500
H555        H  0.62023506  0.22560539  0.47500313     0.43600
H556        H  0.56063507  0.12013187  0.42814410     0.43500
C557        C  0.01858474  0.05694622  0.14362877    -0.05600
C558        C  0.05008518  0.05806554  0.13297440    -0.33000
C559        C  0.07344142  0.07418050  0.14922321     0.36300
C560        C  0.06500317  0.09038164  0.17554232    -0.05900
C561        C  0.03334136  0.09156064  0.18415480    -0.32900
C562        C  0.01083372  0.07380037  0.17009990     0.36200
H563        H  0.05739262  0.04406864  0.11413938     0.16500
O564        O  0.10455080  0.07124735  0.14126371    -0.60400
H565        H  0.02665697  0.10324776  0.20491480     0.16600
O566        O  0.98304734  0.06899195  0.18565095    -0.60500
H567        H  0.97381580  0.08881584  0.18993989     0.43600
H568        H  0.10768398  0.08497623  0.12391135     0.43500
C569        C  0.02725993  0.45187896  0.20500391    -0.05600
C570        C  0.01222607  0.43754632  0.22913959    -0.33000
C571        C  0.02929916  0.42001878  0.24916897     0.36300
C572        C  0.06181901  0.41483160  0.24411712    -0.05900
C573        C  0.07640162  0.42745770  0.21849447    -0.32900
C574        C  0.05946512  0.44650666  0.19933515     0.36200
H575        H  0.98746928  0.44163547  0.23366137     0.16500
O576        O  0.01438528  0.40983046  0.27485596    -0.60400
H577        H  0.10148375  0.42460047  0.21476560     0.16600
O578        O  0.07446716  0.45976166  0.17521907    -0.60500
H579        H  0.08786466  0.47552292  0.18439406     0.43600
H580        H  0.01372343  0.42707398  0.28901218     0.43500
C581        C  0.87503822  0.10366541  0.21213439    -0.05600
C582        C  0.86200602  0.07728860  0.20124073    -0.33000
C583        C  0.87023186  0.06598563  0.17259559     0.36300
C584        C  0.89296695  0.08106782  0.15449270    -0.05900
C585        C  0.90107607  0.11036932  0.16335439    -0.32900
C586        C  0.89228720  0.12165566  0.19209089     0.36200
H587        H  0.84716404  0.06417607  0.21599774     0.16500
O588        O  0.85719200  0.03944954  0.16363866    -0.60400
H589        H  0.91680039  0.12346027  0.14931454     0.16600
O590        O  0.90326627  0.14886912  0.20132960    -0.60500
H591        H  0.88494183  0.16238972  0.19968321     0.43600
H592        H  0.86307754  0.02484825  0.17949625     0.43500
C593        C  0.92874848  0.46385462  0.12761369    -0.05600
C594        C  0.90181338  0.46815005  0.14604707    -0.33000
C595        C  0.88974965  0.44584310  0.16460114     0.36300
C596        C  0.90538284  0.41852056  0.16652290    -0.05900
C597        C  0.92798465  0.41165438  0.14406554    -0.32900
C598        C  0.93927820  0.43404038  0.12415250     0.36200
H599        H  0.89274925  0.48978599  0.15077895     0.16500
O600        O  0.86468696  0.45214966  0.18352075    -0.60400
H601        H  0.93958830  0.39027329  0.14429478     0.16600
O602        O  0.96385705  0.42752511  0.10487530    -0.60500
H603        H  0.98295663  0.42725936  0.11788905     0.43600
H604        H  0.87288753  0.46617406  0.19917227     0.43500
C605        C  0.59476389  0.14247687  0.22338189    -0.05600
C606        C  0.56187554  0.14437791  0.22173010    -0.33000
C607        C  0.54710822  0.15162899  0.19455252     0.36300
C608        C  0.56532755  0.15601118  0.16781537    -0.05900
C609        C  0.59797459  0.15101207  0.16889086    -0.32900
C610        C  0.61282949  0.14451149  0.19647706     0.36200
H611        H  0.54754350  0.14228729  0.24212275     0.16500
O612        O  0.51530939  0.15707952  0.19538667    -0.60400
H613        H  0.61224691  0.15458001  0.14870064     0.16600
O614        O  0.64511797  0.14322607  0.19732547    -0.60500
H615        H  0.65031814  0.12205993  0.19364210     0.43600
H616        H  0.51330623  0.17839961  0.20083932     0.43500
C617        C  0.42184708  0.33678084  0.23014068    -0.05600
C618        C  0.45397561  0.33224659  0.23574833    -0.33000
C619        C  0.47092411  0.31117402  0.21946188     0.36300
C620        C  0.45592380  0.29434867  0.19653058    -0.05900
C621        C  0.42442029  0.30070562  0.18893932    -0.32900
C622        C  0.40740981  0.32207560  0.20549336     0.36200
H623        H  0.46510110  0.34244191  0.25537669     0.16500
O624        O  0.50148111  0.30560855  0.22786173    -0.60400
H625        H  0.41278064  0.28857349  0.17076143     0.16600
O626        O  0.37602901  0.32613196  0.19947365    -0.60500
H627        H  0.37530921  0.34291776  0.18496372     0.43600
H628        H  0.50004425  0.29013683  0.24381672     0.43500
C629        C  0.56257156  0.26887680  0.13859593    -0.05600
C630        C  0.57874399  0.25921969  0.16498064    -0.33000
C631        C  0.59432513  0.27871116  0.18462091     0.36300
C632        C  0.59302300  0.30935698  0.17974203    -0.05900
C633        C  0.57962048  0.31958250  0.15244390    -0.32900
C634        C  0.56454732  0.29971880  0.13189357     0.36200
H635        H  0.57537333  0.23715410  0.17375813     0.16500
O636        O  0.60804889  0.26764666  0.21048813    -0.60400
H637        H  0.57837731  0.34322873  0.14828135     0.16600
O638        O  0.54795701  0.31146382  0.10809858    -0.60500
H639        H  0.56407926  0.31684858  0.09265041     0.43600
H640        H  0.62837904  0.25910731  0.20355890     0.43500
C641        C  0.40764626  0.16162991  0.14881170    -0.05600
C642        C  0.43111124  0.14722012  0.13168253    -0.33000
C643        C  0.45218465  0.16419766  0.11422740     0.36300
C644        C  0.45177350  0.19543116  0.11742537    -0.05900
C645        C  0.42249282  0.20804914  0.12463282    -0.32900
C646        C  0.40061028  0.19141116  0.14148922     0.36200
H647        H  0.43498804  0.12358796  0.13399552     0.16500
O648        O  0.47378509  0.15023904  0.09581824    -0.60400
H649        H  0.41888432  0.23169843  0.12210704     0.16600
O650        O  0.37434376  0.20509062  0.15330700    -0.60500
H651        H  0.38211612  0.21832973  0.16984015     0.43600
H652        H  0.46473269  0.15113228  0.07500657     0.43500
C653        C  0.53783405  0.25407926  0.62808919     0.29900
C654        C  0.48436731  0.22021472  0.62295026     0.29900
C655        C  0.51324468  0.25709985  0.65366395    -0.06300
C656        C  0.51778367  0.26034112  0.59948893    -0.07100
C657        C  0.54325113  0.22030875  0.62487435    -0.06900
C658        C  0.48644406  0.23936824  0.65198870    -0.06300
C659        C  0.48973319  0.24302513  0.59746617    -0.07100
C660        C  0.51581024  0.20289362  0.62385875    -0.06900
C661        C  0.46352463  0.25399069  0.66890573    -0.32300
N662        N  0.47511033  0.28006964  0.67927967     0.14200
C663        C  0.50517995  0.28231602  0.66983140    -0.32300
H664        H  0.51913224  0.30238710  0.67150165     0.16100
C665        C  0.48207735  0.24036201  0.56723334    -0.31300
N666        N  0.50412826  0.25453241  0.55073258     0.12900
C667        C  0.52674021  0.26540238  0.56949913    -0.31300
C668        C  0.52364030  0.17703343  0.63903295    -0.31600
N669        N  0.55475302  0.17696104  0.64581140     0.13400
H670        H  0.50696089  0.16159260  0.64887518     0.16000
C671        C  0.56718221  0.20266615  0.63566149    -0.31600
H672        H  0.59083172  0.21002938  0.64108412     0.16000
H673        H  0.54941875  0.27351175  0.56179723     0.16000
H674        H  0.43942405  0.24717528  0.67236326     0.16100
H675        H  0.46427741  0.22579984  0.55765558     0.16000
C676        C  0.95184494  0.48705687  0.62858684     0.29900
C677        C  0.99508464  0.03297737  0.63608022     0.29900
C678        C  0.97043165  0.48658686  0.65867532    -0.06300
C679        C  0.97819830  0.48847320  0.60407433    -0.07100
C680        C  0.93872721  0.02127184  0.62597927    -0.06900
C681        C  0.99318699  0.50854405  0.66227979    -0.06300
C682        C  0.00086639  0.01385963  0.60714027    -0.07100
C683        C  0.96101068  0.04321957  0.63099424    -0.06900
C684        C  0.01734818  0.49634271  0.67927330    -0.32300
N685        N  0.00911462  0.46854679  0.68729683     0.14200
C686        C  0.98060672  0.46258863  0.67541944    -0.32300
H687        H  0.96974205  0.44099907  0.67669268     0.16100
C688        C  0.01129237  0.02240042  0.57863412    -0.31300
N689        N  0.99658593  0.00568200  0.55732005     0.12900
C690        C  0.97507090  0.48517938  0.57283413    -0.31300
C691        C  0.94531494  0.06974346  0.63337432    -0.31600
N692        N  0.91367940  0.06476783  0.63215804     0.13400
H693        H  0.95631468  0.09056387  0.63956637     0.16000
C694        C  0.90998721  0.03556358  0.62451232    -0.31600
H695        H  0.88777192  0.02507496  0.61931533     0.16000
H696        H  0.95748570  0.47196276  0.56109462     0.16000
H697        H  0.04028121  0.50618817  0.68333596     0.16100
H698        H  0.02608717  0.04133158  0.57350404     0.16000
C699        C  0.49690204  0.28077447  0.94288427     0.29900
C700        C  0.54006355  0.23590676  0.94504507     0.29900
C701        C  0.53155756  0.29046933  0.94522121    -0.06300
C702        C  0.49585496  0.26158895  0.47026476    -0.07100
C703        C  0.49582936  0.25802931  0.91697143    -0.06900
C704        C  0.55372199  0.26790304  0.94381084    -0.06300
C705        C  0.51931483  0.23889593  0.47202009    -0.07100
C706        C  0.51762527  0.23518063  0.91738301    -0.06900
C707        C  0.57987526  0.28136458  0.93079790    -0.32300
N708        N  0.57612881  0.31141195  0.92978138     0.14200
C709        C  0.54653376  0.31696303  0.93996682    -0.32300
H710        H  0.53478840  0.33808114  0.94030912     0.16100
C711        C  0.52501361  0.23471745  0.50272124    -0.31300
N712        N  0.50581739  0.25275431  0.51889576     0.12900
C713        C  0.48857871  0.26945126  0.49983829    -0.31300
C714        C  0.50420583  0.21208146  0.90041632    -0.31600
N715        N  0.47514892  0.22021467  0.89078759     0.13400
H716        H  0.51447039  0.19063489  0.89599394     0.16000
C717        C  0.46986074  0.24788409  0.90147060    -0.31600
H718        H  0.44740034  0.25917608  0.90041580     0.16000
H719        H  0.47446552  0.28822099  0.50700985     0.16000
H720        H  0.59830668  0.26968955  0.91875078     0.16100
H721        H  0.54374634  0.22158646  0.51248625     0.16000
C722        C  0.03089601  0.47124618  0.95475718     0.29900
C723        C  0.98383909  0.00821953  0.93942510     0.29900
C724        C  0.99870968  0.45551461  0.94927133    -0.06300
C725        C  0.02029692  0.49662598  0.48225436    -0.07100
C726        C  0.04024771  0.99583987  0.92759815    -0.06900
C727        C  0.97289677  0.47374424  0.94530630    -0.06300
C728        C  0.99212380  0.01168911  0.47600740    -0.07100
C729        C  0.01402103  0.01306591  0.92060356    -0.06900
C730        C  0.94766005  0.45654428  0.93650539    -0.32300
N731        N  0.95800302  0.42867473  0.93124930     0.14200
C732        C  0.98899005  0.42793567  0.93879789    -0.32300
H733        H  0.00425380  0.40990573  0.93201073     0.16100
C734        C  0.98124348  0.01827473  0.50510301    -0.31300
N735        N  0.00011209  0.50632466  0.52749378     0.12900
C736        C  0.02400183  0.49267889  0.51295345    -0.31300
C737        C  0.02453596  0.03955888  0.90866524    -0.31600
N738        N  0.05636301  0.04042622  0.90863425     0.13400
H739        H  0.00910552  0.05742983  0.90242161     0.16000
C740        C  0.06594947  0.01411854  0.92037804    -0.31600
H741        H  0.09018530  0.00967445  0.92500955     0.16000
H742        H  0.04051263  0.47781270  0.52378042     0.16000
H743        H  0.92514284  0.46488227  0.92880306     0.16100
H744        H  0.95826394  0.02709465  0.51084517     0.16000
O745        O  0.69646849  0.37036476  0.74766147    -0.81900
C746        C  0.56573841  0.38173303  0.76702948     0.97500
O747        O  0.57888790  0.39152858  0.74255050    -0.71000
O748        O  0.62845631  0.42602150  0.75152689    -0.71800
Al749      Al  0.62464825  0.39028160  0.72939543     1.49000
C750        C  0.64994063  0.43571714  0.76856132     0.92700
O751        O  0.64952166  0.37951501  0.81905470    -0.80800
O752        O  0.64473956  0.31006986  0.76137722    -0.74400
Al753      Al  0.67149071  0.37465119  0.78171477     1.90100
O754        O  0.62361933  0.33764203  0.81370563    -0.73400
O755        O  0.59461197  0.32847641  0.73255615    -0.73300
O756        O  0.57894554  0.36168352  0.78224421    -0.79000
O757        O  0.61908817  0.35786164  0.70131586    -0.77200
O758        O  0.63618791  0.36769725  0.76062557    -1.13300
O759        O  0.66830511  0.39274138  0.71236693    -0.72500
C760        C  0.69402875  0.38083859  0.72137759     0.98200
C761        C  0.63419367  0.35834254  0.83033408     0.94600
Al762      Al  0.61243735  0.33711819  0.77141675     1.55600
O763        O  0.67072312  0.41804288  0.77843902    -0.77100
C764        C  0.60340816  0.33464227  0.70591088     0.98800
C765        C  0.67014449  0.30891455  0.77618719     0.93700
O766        O  0.68080002  0.33217092  0.78943191    -0.82400
O767        O  0.68977605  0.12443276  0.82810743    -0.81900
C768        C  0.55784946  0.12532246  0.81338454     0.97500
O769        O  0.57212132  0.10469636  0.82759566    -0.71000
O770        O  0.61948230  0.07075391  0.81445256    -0.74600
Al771      Al  0.61612095  0.10245034  0.84258034     1.49000
C772        C  0.64325222  0.06210061  0.80016302     0.92700
O773        O  0.63793539  0.12315567  0.75841198    -0.80800
O774        O  0.64990040  0.18655472  0.82179973    -0.74400
Al775      Al  0.66404297  0.12377906  0.79368001     1.90100
O776        O  0.61467377  0.16560588  0.77132896    -0.73400
O777        O  0.60512261  0.17149315  0.85713033    -0.73300
O778        O  0.57150411  0.14971063  0.80876799    -0.79000
O779        O  0.60804635  0.12742169  0.87690364    -0.77200
O780        O  0.63021609  0.13037359  0.81748901    -1.13300
O781        O  0.65947050  0.09755763  0.85956830    -0.72500
C782        C  0.68578115  0.11046050  0.85290161     0.98200
C783        C  0.61951219  0.14454666  0.75238023     0.94600
Al784      Al  0.61185898  0.16547051  0.81507955     1.55600
O785        O  0.66454340  0.08058439  0.79397679    -0.77100
C786        C  0.60390515  0.15481311  0.87985671     0.98800
C787        C  0.67048938  0.18802267  0.80139583     0.93700
O788        O  0.67578985  0.16520932  0.78532717    -0.82400
O789        O  0.31631786  0.38482415  0.81620832    -0.81900
C790        C  0.44218134  0.38851352  0.82149288     0.97500
O791        O  0.42134197  0.40820786  0.82812846    -0.71000
O792        O  0.36183395  0.43197032  0.82798193    -0.74600
Al793      Al  0.38049211  0.39873444  0.84652954     1.49000
C794        C  0.36035307  0.43895916  0.80063565     0.92700
O795        O  0.38001283  0.36797718  0.75640764    -0.80800
O796        O  0.36285844  0.31164475  0.81832509    -0.74400
Al797      Al  0.34946076  0.37641372  0.78741926     1.90100
O798        O  0.40745431  0.33461776  0.78128891    -0.73400
O799        O  0.39015963  0.33314931  0.86502373    -0.73300
O800        O  0.43650189  0.36079276  0.82525435    -0.79000
O801        O  0.40244762  0.37750563  0.87778460    -0.77200
O802        O  0.37556123  0.37064940  0.81829550    -1.13300
O803        O  0.33913849  0.38852773  0.86256012    -0.72500
C804        C  0.31464054  0.38562502  0.84540080     0.98200
C805        C  0.40133871  0.34850644  0.75732279     0.94600
Al806      Al  0.39748564  0.33775497  0.82229439     1.55600
O807        O  0.36019886  0.41835146  0.78100643    -0.77100
C808        C  0.40262364  0.35043450  0.88369375     0.98800
C809        C  0.34067502  0.31177622  0.79935799     0.93700
O810        O  0.33386829  0.33549810  0.78536937    -0.82400
O811        O  0.31376403  0.11890735  0.74760882    -0.81900
C812        C  0.43959385  0.12496476  0.74413056     0.97500
O813        O  0.42213287  0.10249868  0.73737029    -0.71000
O814        O  0.36656304  0.07221058  0.73783214    -0.74600
Al815      Al  0.38060484  0.10663115  0.71831561     1.49000
C816        C  0.36056475  0.06546647  0.76464277     0.92700
O817        O  0.37774509  0.13802061  0.80721876    -0.80800
O818        O  0.35227146  0.19158293  0.74268721    -0.74400
Al819      Al  0.34633463  0.12810491  0.77678578     1.90100
O820        O  0.39900861  0.17474168  0.78109195    -0.73400
O821        O  0.38144726  0.17181952  0.69781653    -0.73300
O822        O  0.43096082  0.15119344  0.73675834    -0.79000
O823        O  0.39943754  0.12919363  0.68551540    -0.77200
O824        O  0.37201153  0.13469849  0.74554396    -1.13300
O825        O  0.33820969  0.11192807  0.70210547    -0.72500
C826        C  0.31314043  0.11586636  0.71843366     0.98200
C827        C  0.39505102  0.16106447  0.80578028     0.94600
Al828      Al  0.38968181  0.16946293  0.73996890     1.55600
O829        O  0.35636336  0.08621595  0.78362833    -0.77100
C830        C  0.39437221  0.15564283  0.67850894     0.98800
C831        C  0.33365208  0.19198431  0.76485094     0.93700
O832        O  0.32976815  0.16863259  0.78038393    -0.82400
O833        O  0.17927431  0.37137695  0.81752589    -0.81900
C834        C  0.05596073  0.35414150  0.83173073     0.97500
O835        O  0.07972357  0.33742569  0.83641466    -0.71000
O836        O  0.14077266  0.32188341  0.82920549    -0.74600
Al837      Al  0.11989814  0.35170075  0.85217063     1.49000
C838        C  0.14070261  0.31672011  0.80121204     0.92700
O839        O  0.11029257  0.38801656  0.76244741    -0.80800
O840        O  0.11925017  0.44092801  0.82148795    -0.74400
Al841      Al  0.14309210  0.37913660  0.79179106     1.90100
O842        O  0.07534626  0.40910542  0.79232075    -0.73400
O843        O  0.10425515  0.41656268  0.87140970    -0.73300
O844        O  0.05698663  0.38140349  0.84011279    -0.79000
O845        O  0.09970119  0.37157979  0.88702270    -0.77200
O846        O  0.11839811  0.38069028  0.82454731    -1.13300
O847        O  0.16081479  0.36554137  0.86523008    -0.72500
C848        C  0.18355176  0.37011550  0.84642927     0.98200
C849        C  0.08413635  0.40104749  0.76637512     0.94600
Al850      Al  0.09114516  0.40957884  0.83100632     1.55600
O851        O  0.13513043  0.33766185  0.78311808    -0.77100
C852        C  0.10059219  0.39894891  0.89293996     0.98800
C853        C  0.14363654  0.44267509  0.80516268     0.93700
O854        O  0.15540069  0.41986122  0.79299224    -0.82400
O855        O  0.18738358  0.12500734  0.75278655    -0.81900
C856        C  0.05909478  0.14748319  0.76794622     0.97500
O857        O  0.07385062  0.15517987  0.74353612    -0.71000
O858        O  0.12783172  0.18324773  0.75054746    -0.74600
Al859      Al  0.11845046  0.14782858  0.73052682     1.49000
C860        C  0.14667564  0.19119790  0.77098713     0.92700
O861        O  0.13741368  0.13251966  0.82399839    -0.80800
O862        O  0.12632980  0.06727089  0.76201824    -0.74400
Al863      Al  0.16034770  0.12855889  0.78610635     1.90100
O864        O  0.10826322  0.09369785  0.81465829    -0.73400
O865        O  0.07772421  0.09303787  0.73507241    -0.73300
O866        O  0.06916060  0.12670119  0.78447422    -0.79000
O867        O  0.10739414  0.11608521  0.70279270    -0.77200
O868        O  0.12590504  0.12507730  0.76296968    -1.13300
O869        O  0.16137626  0.14406284  0.71409175    -0.72500
C870        C  0.18621903  0.13272245  0.72531217     0.98200
C871        C  0.12002735  0.11175219  0.83331402     0.94600
Al872      Al  0.09795031  0.09760634  0.77296547     1.55600
O873        O  0.16218299  0.17186586  0.78549984    -0.77100
C874        C  0.08458309  0.09911446  0.70802903     0.98800
C875        C  0.15130080  0.06332495  0.77721902     0.93700
O876        O  0.16507221  0.08509357  0.79065419    -0.82400
O877        O  0.81794527  0.35870791  0.75309207    -0.81900
C878        C  0.94650926  0.34857859  0.75422120     0.97500
O879        O  0.92405270  0.33092810  0.74723076    -0.71000
O880        O  0.86390950  0.31154004  0.74750282    -0.74600
Al881      Al  0.88447193  0.34421258  0.72795064     1.49000
C882        C  0.85744524  0.30618280  0.77493427     0.92700
O883        O  0.87347485  0.37854759  0.81992940    -0.80800
O884        O  0.88043520  0.42977940  0.77411139    -0.74400
Al885      Al  0.84820238  0.36824313  0.78440435     1.90100
O886        O  0.91899194  0.39007201  0.79928531    -0.73400
O887        O  0.89921072  0.41292070  0.72072569    -0.73300
O888        O  0.94368517  0.37576879  0.74767286    -0.79000
O889        O  0.90567550  0.37013260  0.69821130    -0.77200
O890        O  0.87981478  0.37100124  0.75770701    -1.13300
O891        O  0.84496437  0.35626838  0.70964161    -0.72500
C892        C  0.81909064  0.35988012  0.72409741     0.98200
C893        C  0.90239256  0.38547319  0.82245634     0.94600
Al894      Al  0.90818408  0.39981743  0.76017932     1.55600
O895        O  0.85638768  0.32730147  0.79392555    -0.77100
C896        C  0.90303715  0.39809391  0.69664270     0.98800
C897        C  0.85134409  0.43143401  0.77918639     0.93700
O898        O  0.83447564  0.40843640  0.77973135    -0.82400
O899        O  0.80752373  0.11212964  0.82478860    -0.81900
C900        C  0.93465152  0.14008531  0.80639526     0.97500
O901        O  0.92101408  0.14460112  0.83218951    -0.71000
O902        O  0.86778432  0.17323202  0.82686339    -0.74600
Al903      Al  0.87655097  0.13674756  0.84488500     1.49000
C904        C  0.84735272  0.18154891  0.80817974     0.92700
O905        O  0.85185277  0.12756308  0.75245143    -0.80800
O906        O  0.86972555  0.05808002  0.80565846    -0.74400
Al907      Al  0.83204840  0.11942737  0.79057211     1.90100
O908        O  0.88408040  0.09021819  0.75516964    -0.73400
O909        O  0.91702516  0.08241445  0.83506844    -0.73300
O910        O  0.92408257  0.12094143  0.78795743    -0.79000
O911        O  0.88684442  0.10295628  0.86917477    -0.77200
O912        O  0.86801542  0.11572615  0.81109601    -1.13300
O913        O  0.83390276  0.13287546  0.86237480    -0.72500
C914        C  0.80936733  0.11986104  0.85224141     0.98200
C915        C  0.86915226  0.10882666  0.73953908     0.94600
Al916      Al  0.89634218  0.09020601  0.79722843     1.55600
O917        O  0.82971017  0.16259635  0.79500996    -0.77100
C918        C  0.90770113  0.08437048  0.86233777     0.98800
C919        C  0.84312045  0.05401853  0.79344423     0.93700
O920        O  0.82781250  0.07591095  0.78231348    -0.82400
C921        C  0.85151900  0.27483835  0.78441303    -0.05600
C922        C  0.85992118  0.26548564  0.81374818    -0.33000
C923        C  0.85741570  0.23551143  0.82212719     0.36300
C924        C  0.84570274  0.21399453  0.80123148    -0.05900
C925        C  0.83583792  0.22363309  0.77239688    -0.32900
C926        C  0.83885132  0.25359162  0.76386550     0.36200
H927        H  0.86969780  0.28128007  0.82991995     0.16500
O928        O  0.86755831  0.22741771  0.85058845    -0.60400
H929        H  0.82703093  0.20768978  0.75586693     0.16600
O930        O  0.82988912  0.26172617  0.73506006    -0.60500
H931        H  0.80703255  0.26607611  0.73668408     0.43600
H932        H  0.84825149  0.22674663  0.86337981     0.43500
C933        C  0.83833144  0.46089574  0.78643331    -0.05600
C934        C  0.82692348  0.47910142  0.76306646    -0.33000
C935        C  0.82510069  0.00947470  0.76255032     0.36300
C936        C  0.83242063  0.02259019  0.79099441    -0.05900
C937        C  0.83865950  0.00382329  0.81580659    -0.32900
C938        C  0.84487324  0.47345449  0.81514734     0.36200
H939        H  0.82209254  0.46967264  0.74075120     0.16500
O940        O  0.81830982  0.02676311  0.73787229    -0.60400
H941        H  0.84429437  0.01334884  0.83791181     0.16600
O942        O  0.85649496  0.45623193  0.83824458    -0.60500
H943        H  0.83774222  0.45011634  0.85023963     0.43600
H944        H  0.79540368  0.03086106  0.73946247     0.43500
C945        C  0.02797718  0.15980994  0.77715151    -0.05600
C946        C  0.00335550  0.16050764  0.75600150    -0.33000
C947        C  0.97190948  0.15846622  0.76593066     0.36300
C948        C  0.96475250  0.15478036  0.79731897    -0.05900
C949        C  0.98901758  0.15876132  0.81855014    -0.32900
C950        C  0.02037719  0.16182768  0.80859396     0.36200
H951        H  0.00846558  0.15939397  0.73178212     0.16500
O952        O  0.94849404  0.15704231  0.74448537    -0.60400
H953        H  0.98418965  0.15663967  0.84273181     0.16600
O954        O  0.04385972  0.16339269  0.82993893    -0.60500
H955        H  0.05181506  0.18408855  0.82904513     0.43600
H956        H  0.93854200  0.17693190  0.74489821     0.43500
C957        C  0.02843135  0.34341992  0.81278796    -0.05600
C958        C  0.03194766  0.34118650  0.78081192    -0.33000
C959        C  0.00547425  0.33995014  0.76115203     0.36300
C960        C  0.97456826  0.33946932  0.77315622    -0.05900
C961        C  0.97135096  0.33785825  0.80520012    -0.32900
C962        C  0.99778323  0.34032898  0.82485442     0.36200
H963        H  0.05524129  0.34324318  0.77083977     0.16500
O964        O  0.01007758  0.34203993  0.73026466    -0.60400
H965        H  0.94798096  0.33736484  0.81518924     0.16600
O966        O  0.99311912  0.34178688  0.85578604    -0.60500
H967        H  0.99565658  0.32112399  0.86302306     0.43600
H968        H  0.00747101  0.32152568  0.72233806     0.43500
C969        C  0.14618248  0.28568859  0.79075440    -0.05600
C970        C  0.16485180  0.26645452  0.80846198    -0.33000
C971        C  0.16669404  0.23588940  0.80177902     0.36300
C972        C  0.14923082  0.22384903  0.77729793    -0.05900
C973        C  0.13198452  0.24358325  0.75875403    -0.32900
C974        C  0.13026674  0.27398930  0.76535583     0.36200
H975        H  0.17747818  0.27505073  0.82809758     0.16500
O976        O  0.18444682  0.21798335  0.82015883    -0.60400
H977        H  0.11860159  0.23533071  0.73945329     0.16600
O978        O  0.11138813  0.29169837  0.74781817    -0.60500
H979        H  0.09041209  0.29125621  0.75788929     0.43600
H980        H  0.20569576  0.21768736  0.81065748     0.43500
C981        C  0.15671888  0.47234811  0.79829809    -0.05600
C982        C  0.16270895  0.48006416  0.76776999    -0.33000
C983        C  0.15972049  0.01077992  0.75983529     0.36300
C984        C  0.16037487  0.03228805  0.78330865    -0.05900
C985        C  0.16058259  0.02283009  0.81371760    -0.32900
C986        C  0.15792035  0.49459835  0.82093989     0.36200
H987        H  0.16172602  0.46323084  0.75002830     0.16500
O988        O  0.15882684  0.01921492  0.72981778    -0.60400
H989        H  0.16037445  0.03896229  0.83189274     0.16600
O990        O  0.15193714  0.48798835  0.85092675    -0.60500
H991        H  0.17186674  0.47950316  0.85877184     0.43600
H992        H  0.18057192  0.02585628  0.72494363     0.43500
C993        C  0.28152950  0.11837237  0.70447650    -0.05600
C994        C  0.26895116  0.14699019  0.70061230    -0.33000
C995        C  0.23619508  0.15187406  0.70207952     0.36300
C996        C  0.21560073  0.12792318  0.70761432    -0.05900
C997        C  0.22798780  0.09897452  0.70729085    -0.32900
C998        C  0.26066713  0.09412899  0.70607065     0.36200
H999        H  0.28467047  0.16600254  0.70017456     0.16500
O1000       O  0.22517141  0.18045079  0.70292951    -0.60400
H1001       H  0.21257928  0.08029390  0.71197202     0.16600
O1002       O  0.27208526  0.06595888  0.71010842    -0.60500
H1003       H  0.27251504  0.06298275  0.73251830     0.43600
H1004       H  0.21571041  0.18374492  0.68256234     0.43500
C1005       C  0.28253132  0.38256277  0.85810497    -0.05600
C1006       C  0.26948119  0.35391399  0.86012657    -0.33000
C1007       C  0.23662939  0.34958690  0.85934317     0.36300
C1008       C  0.21630531  0.37413464  0.85719655    -0.05900
C1009       C  0.22930215  0.40283595  0.85727152    -0.32900
C1010       C  0.26212546  0.40713274  0.85759692     0.36200
H1011       H  0.28480783  0.33471253  0.85909736     0.16500
O1012       O  0.22476467  0.32125482  0.85775491    -0.60400
H1013       H  0.21404254  0.42187498  0.85437771     0.16600
O1014       O  0.27405235  0.43515677  0.85348493    -0.60500
H1015       H  0.27560740  0.44379642  0.87428651     0.43600
H1016       H  0.22449040  0.31616964  0.83569711     0.43500
C1017       C  0.32114721  0.22156962  0.77465152    -0.05600
C1018       C  0.31806402  0.24418760  0.75275444    -0.33000
C1019       C  0.31987066  0.27439671  0.76105883     0.36300
C1020       C  0.32562484  0.28256330  0.79167228    -0.05900
C1021       C  0.32461190  0.26010487  0.81392281    -0.32900
C1022       C  0.32185818  0.22994278  0.80571010     0.36200
H1023       H  0.31733038  0.23841708  0.72872231     0.16500
O1024       O  0.32038970  0.29535380  0.73850930    -0.60400
H1025       H  0.32880132  0.26573643  0.83764609     0.16600
O1026       O  0.32493535  0.20888127  0.82796300    -0.60500
H1027       H  0.30304297  0.20340621  0.83363031     0.43600
H1028       H  0.29804926  0.30116644  0.73574881     0.43500
C1029       C  0.35988345  0.47143770  0.79259507    -0.05600
C1030       C  0.36859995  0.48065761  0.76331306    -0.33000
C1031       C  0.36432514  0.01019382  0.75073926     0.36300
C1032       C  0.35880258  0.03294213  0.77283570    -0.05900
C1033       C  0.35159871  0.02406564  0.80268386    -0.32900
C1034       C  0.35291273  0.49378926  0.81466472     0.36200
H1035       H  0.37464284  0.46426500  0.74609689     0.16500
O1036       O  0.37183958  0.01712867  0.72116505    -0.60400
H1037       H  0.34697862  0.04067318  0.82008898     0.16600
O1038       O  0.34357032  0.48620045  0.84358720    -0.60500
H1039       H  0.36284770  0.48786065  0.85626206     0.43600
H1040       H  0.35160371  0.01616114  0.70989515     0.43500
C1041       C  0.52516821  0.12227585  0.80018073    -0.05600
C1042       C  0.51453497  0.09610990  0.78547963    -0.33000
C1043       C  0.48657358  0.09592876  0.76750003     0.36300
C1044       C  0.46929783  0.12241322  0.76300000    -0.05900
C1045       C  0.47941615  0.14791778  0.77897834    -0.32900
C1046       C  0.50640933  0.14798025  0.79733858     0.36200
H1047       H  0.52848949  0.07607469  0.78695162     0.16500
O1048       O  0.47715185  0.07006877  0.75361478    -0.60400
H1049       H  0.46617283  0.16838350  0.77750410     0.16600
O1050       O  0.51427542  0.17361878  0.81267125    -0.60500
H1051       H  0.52238197  0.18736846  0.79686146     0.43600
H1052       H  0.46431260  0.05959511  0.76916075     0.43500
C1053       C  0.78068348  0.11401713  0.87078282    -0.05600
C1054       C  0.76215483  0.13809141  0.88030052    -0.33000
C1055       C  0.72904834  0.13548522  0.88112720     0.36300
C1056       C  0.71427016  0.10862706  0.87227737    -0.05900
C1057       C  0.73305971  0.08329889  0.86889103    -0.32900
C1058       C  0.76609841  0.08586142  0.86791535     0.36200
H1059       H  0.77277840  0.15986735  0.88281674     0.16500
O1060       O  0.71118249  0.16031892  0.88656041    -0.60400
H1061       H  0.72228321  0.06241732  0.86223907     0.16600
O1062       O  0.78377424  0.06144371  0.86015569    -0.60500
H1063       H  0.78046733  0.05839620  0.83794776     0.43600
H1064       H  0.71012978  0.17080415  0.86675356     0.43500
C1065       C  0.53465711  0.39244637  0.77985685    -0.05600
C1066       C  0.53089182  0.39181382  0.81187833    -0.33000
C1067       C  0.50115434  0.39377392  0.82591947     0.36300
C1068       C  0.47375935  0.39669312  0.80829811    -0.05900
C1069       C  0.47750069  0.40052315  0.77647378    -0.32900
C1070       C  0.50755750  0.39815057  0.76218133     0.36200
H1071       H  0.55113856  0.38787146  0.82623454     0.16500
O1072       O  0.49904307  0.39090758  0.85694100    -0.60400
H1073       H  0.45672505  0.40262378  0.76230954     0.16600
O1074       O  0.50944924  0.39814346  0.73095427    -0.60500
H1075       H  0.51679015  0.41835802  0.72554911     0.43600
H1076       H  0.49960738  0.41148321  0.86506885     0.43500
C1077       C  0.78913603  0.36696282  0.70820191    -0.05600
C1078       C  0.77795631  0.39630573  0.70975172    -0.33000
C1079       C  0.74556612  0.40256497  0.70711260     0.36300
C1080       C  0.72365071  0.37925165  0.70339208    -0.05900
C1081       C  0.73548123  0.35054787  0.69740458    -0.32900
C1082       C  0.76788704  0.34428513  0.70000807     0.36200
H1083       H  0.79389921  0.41402905  0.71643367     0.16500
O1084       O  0.73520006  0.43066330  0.71382499    -0.60400
H1085       H  0.71914614  0.33210299  0.69527063     0.16600
O1086       O  0.77775622  0.31534252  0.69881866    -0.60500
H1087       H  0.78840099  0.31318325  0.67875988     0.43600
H1088       H  0.73051595  0.43972554  0.69378370     0.43500
C1089       C  0.68408701  0.27905785  0.78086455    -0.05600
C1090       C  0.68935796  0.26921385  0.81070571    -0.33000
C1091       C  0.68905653  0.23876896  0.81742686     0.36300
C1092       C  0.68392586  0.21764180  0.79403968    -0.05900
C1093       C  0.68362714  0.22737563  0.76365305    -0.32900
C1094       C  0.68367798  0.25786782  0.75701073     0.36200
H1095       H  0.69031338  0.28504395  0.82928231     0.16500
O1096       O  0.69058297  0.23004100  0.84730727    -0.60400
H1097       H  0.67991271  0.21157493  0.74526112     0.16600
O1098       O  0.68029609  0.26676232  0.72733432    -0.60500
H1099       H  0.70205602  0.27056807  0.71997461     0.43600
H1100       H  0.71325217  0.22621019  0.85107675     0.43500
C1101       C  0.64989356  0.46817609  0.77677792    -0.05600
C1102       C  0.67783379  0.48338644  0.78467471    -0.33000
C1103       C  0.67428476  0.01437913  0.79095851     0.36300
C1104       C  0.64547756  0.03007900  0.79124108    -0.05900
C1105       C  0.61757282  0.01427034  0.78514775    -0.32900
C1106       C  0.62147277  0.48459584  0.77610590     0.36200
H1107       H  0.70002231  0.47153886  0.78505448     0.16500
O1108       O  0.70201546  0.02867170  0.79769904    -0.60400
H1109       H  0.59506886  0.02561040  0.78574762     0.16600
O1110       O  0.59342227  0.47109366  0.76880604    -0.60500
H1111       H  0.58998366  0.47557770  0.74693084     0.43600
H1112       H  0.70463070  0.02646955  0.82005053     0.43500
C1113       C  0.11322084  0.10614315  0.86558373    -0.05600
C1114       C  0.08311919  0.11382380  0.87582313    -0.33000
C1115       C  0.06473576  0.09361721  0.89246782     0.36300
C1116       C  0.07660442  0.06480479  0.89872807    -0.05900
C1117       C  0.10903444  0.05990289  0.89327245    -0.32900
C1118       C  0.12750502  0.08108830  0.87817666     0.36200
H1119       H  0.07249654  0.13415823  0.86807920     0.16500
O1120       O  0.03538527  0.10238771  0.90203642    -0.60400
H1121       H  0.12008375  0.03908132  0.89885242     0.16600
O1122       O  0.15855228  0.07520278  0.87200475    -0.60500
H1123       H  0.16996058  0.08010595  0.89110889     0.43600
H1124       H  0.02285808  0.10526591  0.88317669     0.43500
C1125       C  0.05900117  0.44985862  0.96050132    -0.05600
C1126       C  0.08935591  0.45843830  0.95148581    -0.33000
C1127       C  0.10636108  0.44006447  0.93142060     0.36300
C1128       C  0.09425006  0.41172346  0.92369219    -0.05900
C1129       C  0.07059975  0.39986907  0.94252935    -0.32900
C1130       C  0.05444514  0.41881542  0.96288247     0.36200
H1131       H  0.09759517  0.48072661  0.95615179     0.16500
O1132       O  0.13238858  0.45127719  0.91681014    -0.60400
H1133       H  0.06268767  0.37716272  0.93953265     0.16600
O1134       O  0.03193075  0.40736745  0.98205427    -0.60500
H1135       H  0.04119135  0.40880928  0.00276224     0.43600
H1136       H  0.15062610  0.44112340  0.92621396     0.43500
C1137       C  0.94524948  0.41107794  0.90694051    -0.05600
C1138       C  0.96329703  0.40834147  0.88044865    -0.33000
C1139       C  0.94982771  0.39928236  0.85332502     0.36300
C1140       C  0.91765152  0.39066818  0.85233693    -0.05900
C1141       C  0.89995126  0.39117273  0.87953540    -0.32900
C1142       C  0.91348386  0.40197188  0.90670017     0.36200
H1143       H  0.98744929  0.41624198  0.87991366     0.16500
O1144       O  0.96815771  0.40111658  0.82755688    -0.60400
H1145       H  0.87522981  0.38505913  0.87935795     0.16600
O1146       O  0.89544250  0.40443964  0.93258860    -0.60500
H1147       H  0.88295257  0.42281650  0.92990674     0.43600
H1148       H  0.96703085  0.42219051  0.82119333     0.43500
C1149       C  0.95756747  0.02586485  0.92340896    -0.05600
C1150       C  0.94435577  0.05219282  0.93529461    -0.33000
C1151       C  0.92643389  0.07123817  0.91638091     0.36300
C1152       C  0.92159692  0.06397579  0.88525716    -0.05900
C1153       C  0.93291813  0.03695699  0.87427768    -0.32900
C1154       C  0.95095015  0.01841229  0.89236868     0.36200
H1155       H  0.94968852  0.05907510  0.95840477     0.16500
O1156       O  0.91615334  0.09788145  0.92783839    -0.60400
H1157       H  0.92942304  0.03074590  0.85057279     0.16600
O1158       O  0.96568156  0.99491393  0.87813099    -0.60500
H1159       H  0.93752058  0.48001874  0.87693438     0.43600
H1160       H  0.89451120  0.09393635  0.93543881     0.43500
C1161       C  0.59650856  0.33129386  0.91266888    -0.05600
C1162       C  0.62696272  0.32156133  0.90449755    -0.33000
C1163       C  0.64258379  0.33368823  0.87947256     0.36300
C1164       C  0.62832855  0.35650242  0.86297519    -0.05900
C1165       C  0.60165727  0.37046566  0.87471758    -0.32900
C1166       C  0.58546175  0.35808344  0.89941128     0.36200
H1167       H  0.63751772  0.30268114  0.91563711     0.16500
O1168       O  0.66977282  0.32066014  0.86909821    -0.60400
H1169       H  0.59143322  0.38905603  0.86275700     0.16600
O1170       O  0.55832942  0.37169765  0.90892194    -0.60500
H1171       H  0.54256104  0.36740725  0.89281511     0.43600
H1172       H  0.68660846  0.33564779  0.87242078     0.43500
C1173       C  0.45294427  0.20380082  0.87227929    -0.05600
C1174       C  0.43253717  0.21991264  0.85357912    -0.33000
C1175       C  0.41164940  0.20575154  0.83409502     0.36300
C1176       C  0.41075706  0.17451791  0.83238007    -0.05900
C1177       C  0.42965806  0.15792533  0.85215840    -0.32900
C1178       C  0.45076731  0.17240981  0.87219445     0.36200
H1179       H  0.43355112  0.24390799  0.85294626     0.16500
O1180       O  0.39272732  0.22281612  0.81586445    -0.60400
H1181       H  0.42927922  0.13390234  0.85098307     0.16600
O1182       O  0.46859000  0.15579830  0.89174015    -0.60500
H1183       H  0.48487341  0.14619802  0.87875537     0.43600
H1184       H  0.40682129  0.23110252  0.79991577     0.43500
C1185       C  0.47345071  0.30527556  0.93467308    -0.05600
C1186       C  0.44231246  0.30556578  0.94633324    -0.33000
C1187       C  0.41821079  0.32125665  0.93110518     0.36300
C1188       C  0.42570974  0.33873035  0.90554246    -0.05900
C1189       C  0.45677568  0.34014947  0.89562865    -0.32900
C1190       C  0.47974253  0.32226617  0.90810797     0.36200
H1191       H  0.43585860  0.29123449  0.96505766     0.16500
O1192       O  0.38753064  0.31844341  0.94059056    -0.60400
H1193       H  0.46252818  0.35201706  0.87507114     0.16600
O1194       O  0.50687051  0.31846052  0.89136504    -0.60500
H1195       H  0.50117374  0.30489038  0.87432064     0.43600
H1196       H  0.37855971  0.30221212  0.92789344     0.43500
C1197       C  0.56293415  0.20940640  0.94534084    -0.05600
C1198       C  0.55040680  0.18063357  0.94181265    -0.33000
C1199       C  0.56607523  0.15990496  0.92321102     0.36300
C1200       C  0.59489537  0.16786903  0.90950072    -0.05900
C1201       C  0.61099308  0.19289995  0.92062357    -0.32900
C1202       C  0.59570461  0.21252460  0.94064631     0.36200
H1203       H  0.52627538  0.17611220  0.94855397     0.16500
O1204       O  0.55065505  0.13445962  0.91451839    -0.60400
H1205       H  0.63466023  0.19787194  0.91275947     0.16600
O1206       O  0.61281091  0.23407090  0.95537047    -0.60500
H1207       H  0.61904208  0.22511020  0.97505940     0.43600
H1208       H  0.55919725  0.11875574  0.92790114     0.43500
C1209       C  0.01764496  0.05707013  0.64817126    -0.05600
C1210       C  0.04947592  0.05907223  0.63864507    -0.33000
C1211       C  0.07206048  0.07449921  0.65653482     0.36300
C1212       C  0.06275919  0.08830260  0.68404752    -0.05900
C1213       C  0.03087950  0.08844706  0.69192160    -0.32900
C1214       C  0.00873398  0.07254408  0.67521498     0.36200
H1215       H  0.05753490  0.04648831  0.61906462     0.16500
O1216       O  0.10330783  0.07329782  0.64858678    -0.60400
H1217       H  0.02328004  0.09889443  0.71306279     0.16600
O1218       O  0.97963075  0.06820180  0.68841957    -0.60500
H1219       H  0.97054187  0.08823010  0.69186736     0.43600
H1220       H  0.10713639  0.09143771  0.63640746     0.43500
C1221       C  0.02749783  0.44759913  0.70389386    -0.05600
C1222       C  0.01340225  0.43312149  0.72840185    -0.33000
C1223       C  0.03111158  0.41511815  0.74733660     0.36300
C1224       C  0.06350814  0.41025330  0.74117748    -0.05900
C1225       C  0.07682834  0.42225296  0.71460047    -0.32900
C1226       C  0.05901965  0.44125578  0.69610733     0.36200
H1227       H  0.98895716  0.43747862  0.73411585     0.16500
O1228       O  0.01706375  0.40430864  0.77323944    -0.60400
H1229       H  0.10162983  0.41904887  0.70962267     0.16600
O1230       O  0.07242713  0.45348100  0.67058017    -0.60500
H1231       H  0.08653649  0.46944289  0.67824383     0.43600
H1232       H  0.01527689  0.42152557  0.78734601     0.43500
C1233       C  0.86982293  0.10572688  0.70621172    -0.05600
C1234       C  0.85576512  0.08043054  0.69388578    -0.33000
C1235       C  0.86635659  0.06838214  0.66631506     0.36300
C1236       C  0.89160671  0.08218724  0.65039124    -0.05900
C1237       C  0.90022247  0.11123533  0.65974628    -0.32900
C1238       C  0.88994942  0.12275055  0.68788076     0.36200
H1239       H  0.83869778  0.06825298  0.70720952     0.16500
O1240       O  0.85341636  0.04201140  0.65681660    -0.60400
H1241       H  0.91769870  0.12365435  0.64706415     0.16600
O1242       O  0.90222468  0.14898837  0.69849479    -0.60500
H1243       H  0.88591373  0.16409160  0.69409815     0.43600
H1244       H  0.85996952  0.02709479  0.67211139     0.43500
C1245       C  0.92846161  0.46070566  0.62914210    -0.05600
C1246       C  0.90092534  0.46438153  0.64683254    -0.33000
C1247       C  0.88927739  0.44183377  0.66539384     0.36300
C1248       C  0.90559715  0.41488493  0.66760401    -0.05900
C1249       C  0.92879072  0.40851523  0.64560645    -0.32900
C1250       C  0.93991737  0.43113408  0.62593676     0.36200
H1251       H  0.89087797  0.48581277  0.65081529     0.16500
O1252       O  0.86370621  0.44748387  0.68386246    -0.60400
H1253       H  0.94103054  0.38745610  0.64617406     0.16600
O1254       O  0.96535855  0.42524547  0.60748952    -0.60500
H1255       H  0.98394394  0.42493494  0.62118384     0.43600
H1256       H  0.87128540  0.46156314  0.69975124     0.43500
C1257       C  0.60189627  0.14560069  0.72368873    -0.05600
C1258       C  0.57003075  0.15349179  0.72553367    -0.33000
C1259       C  0.55343404  0.16165192  0.69963593     0.36300
C1260       C  0.56852709  0.16134676  0.67091224    -0.05900
C1261       C  0.59982513  0.15127069  0.66875270    -0.32900
C1262       C  0.61654773  0.14319006  0.69501589     0.36200
H1263       H  0.55847699  0.15537010  0.74753699     0.16500
O1264       O  0.52351555  0.17268288  0.70319740    -0.60400
H1265       H  0.61182567  0.15156222  0.64691082     0.16600
O1266       O  0.64786893  0.13603679  0.69275478    -0.60500
H1267       H  0.64819549  0.11455851  0.68769999     0.43600
H1268       H  0.52623733  0.19442893  0.70583741     0.43500
C1269       C  0.42039587  0.34043640  0.73088149    -0.05600
C1270       C  0.45294753  0.33831930  0.73573127    -0.33000
C1271       C  0.47156390  0.31997310  0.71770337     0.36300
C1272       C  0.45749307  0.30294142  0.69444476    -0.05900
C1273       C  0.42531101  0.30701693  0.68778685    -0.32900
C1274       C  0.40669544  0.32574658  0.70588887     0.36200
H1275       H  0.46339072  0.34795742  0.75592803     0.16500
O1276       O  0.50280503  0.31669234  0.72500396    -0.60400
H1277       H  0.41426404  0.29447243  0.66955442     0.16600
O1278       O  0.37467977  0.32622441  0.70156467    -0.60500
H1279       H  0.37021419  0.34585564  0.69244772     0.43600
H1280       H  0.50327004  0.30146349  0.74125056     0.43500
C1281       C  0.56611364  0.27301427  0.63916994    -0.05600
C1282       C  0.57993593  0.26360903  0.66685771    -0.33000
C1283       C  0.59424474  0.28319061  0.68717329     0.36300
C1284       C  0.59524116  0.31362533  0.68081409    -0.05900
C1285       C  0.58489997  0.32328421  0.65202965    -0.32900
C1286       C  0.57022219  0.30331504  0.63131107     0.36200
H1287       H  0.57497598  0.24192405  0.67602669     0.16500
O1288       O  0.60382539  0.27268697  0.71501828    -0.60400
H1289       H  0.58556087  0.34672524  0.64670125     0.16600
O1290       O  0.55616226  0.31460582  0.60581836    -0.60500
H1291       H  0.57355269  0.31741164  0.59093931     0.43600
H1292       H  0.62166990  0.25916115  0.71058711     0.43500
C1293       C  0.40755985  0.16914631  0.65042128    -0.05600
C1294       C  0.43117571  0.15422343  0.63393273    -0.33000
C1295       C  0.45361556  0.17056975  0.61751934     0.36300
C1296       C  0.45380379  0.20181399  0.62019359    -0.05900
C1297       C  0.42477970  0.21522971  0.62692648    -0.32900
C1298       C  0.40220025  0.19939805  0.64373156     0.36200
H1299       H  0.43401042  0.13043145  0.63595956     0.16500
O1300       O  0.47579619  0.15589343  0.60041010    -0.60400
H1301       H  0.42187094  0.23892810  0.62405598     0.16600
O1302       O  0.37684833  0.21425902  0.65590972    -0.60500
H1303       H  0.38529700  0.22578961  0.67345009     0.43600
H1304       H  0.46960676  0.15921358  0.57889320     0.43500
C1305       C  0.53271465  0.75342588  0.12497963     0.29900
C1306       C  0.47955055  0.71919491  0.11906781     0.29900
C1307       C  0.50846785  0.75510458  0.15090617    -0.06300
C1308       C  0.51223824  0.76029650  0.09676403    -0.07100
C1309       C  0.53859115  0.71981917  0.12058263    -0.06900
C1310       C  0.48160976  0.73747892  0.14870638    -0.06300
C1311       C  0.48431166  0.74277271  0.09441960    -0.07100
C1312       C  0.51121032  0.70224604  0.11897551    -0.06900
C1313       C  0.45885498  0.75153579  0.16646611    -0.32300
N1314       N  0.47105825  0.77674996  0.17845043     0.14200
C1315       C  0.50094411  0.77928595  0.16871055    -0.32300
H1316       H  0.51511063  0.79910038  0.17153076     0.16100
C1317       C  0.47684358  0.74021564  0.06418184    -0.31300
N1318       N  0.49893037  0.75449349  0.04793893     0.12900
C1319       C  0.52122492  0.76566637  0.06684584    -0.31300
C1320       C  0.51892640  0.67611366  0.13351276    -0.31600
N1321       N  0.54971166  0.67619734  0.14118417     0.13400
H1322       H  0.50213507  0.66062761  0.14310772     0.16000
C1323       C  0.56232735  0.70202115  0.13159081    -0.31600
H1324       H  0.58587376  0.70924387  0.13754678     0.16000
H1325       H  0.54381858  0.77412015  0.05929706     0.16000
H1326       H  0.43456713  0.74502930  0.16943136     0.16100
H1327       H  0.45926762  0.72552936  0.05441144     0.16000
C1328       C  0.95080229  0.98915436  0.12558788     0.29900
C1329       C  0.99642748  0.53398368  0.13477302     0.29900
C1330       C  0.97108786  0.98746160  0.15465721    -0.06300
C1331       C  0.97608752  0.99085652  0.09997715    -0.07100
C1332       C  0.94001910  0.52197301  0.12533035    -0.06900
C1333       C  0.99409585  0.00915720  0.15795340    -0.06300
C1334       C  0.00197619  0.51420399  0.10628615    -0.07100
C1335       C  0.96227870  0.54411076  0.12960500    -0.06900
C1336       C  0.01858997  0.99665766  0.17434266    -0.32300
N1337       N  0.01042714  0.96880245  0.18234883     0.14200
C1338       C  0.98167770  0.96302129  0.17071375    -0.32300
H1339       H  0.97053713  0.94153906  0.17216112     0.16100
C1340       C  0.01180153  0.52255044  0.07751789    -0.31300
N1341       N  0.99669353  0.50576011  0.05655553     0.12900
C1342       C  0.97284985  0.98695078  0.06877613    -0.31300
C1343       C  0.94638129  0.57056329  0.13187552    -0.31600
N1344       N  0.91476020  0.56531863  0.13166179     0.13400
H1345       H  0.95728535  0.59155627  0.13756786     0.16000
C1346       C  0.91117476  0.53609133  0.12417669    -0.31600
H1347       H  0.88888543  0.52549110  0.11956065     0.16000
H1348       H  0.95550432  0.97319325  0.05736496     0.16000
H1349       H  0.04145591  0.00658952  0.17855151     0.16100
H1350       H  0.02663005  0.54136081  0.07201373     0.16000
C1351       C  0.50120364  0.78117749  0.44344932     0.29900
C1352       C  0.54509858  0.73668060  0.44474869     0.29900
C1353       C  0.53569984  0.79110242  0.44741677    -0.06300
C1354       C  0.49196131  0.76412695  0.96789813    -0.07100
C1355       C  0.50154121  0.75973937  0.41635174    -0.06900
C1356       C  0.55845632  0.76885562  0.44583946    -0.06300
C1357       C  0.51511247  0.74122393  0.96892224    -0.07100
C1358       C  0.52384201  0.73746940  0.41644509    -0.06900
C1359       C  0.58491494  0.78342330  0.43477688    -0.32300
N1360       N  0.58032911  0.81342184  0.43463236     0.14200
C1361       C  0.55027005  0.81799593  0.44396974    -0.32300
H1362       H  0.53800448  0.83884745  0.44450243     0.16100
C1363       C  0.52000917  0.73564686  0.99955574    -0.31300
N1364       N  0.50059192  0.75312424  0.01612889     0.12900
C1365       C  0.48392123  0.77066807  0.99756302    -0.31300
C1366       C  0.51318991  0.71575357  0.39634353    -0.31600
N1367       N  0.48458389  0.72364851  0.38558096     0.13400
H1368       H  0.52468603  0.69510269  0.39081816     0.16000
C1369       C  0.47723474  0.75029492  0.39792476    -0.31600
H1370       H  0.45451228  0.76098459  0.39581069     0.16000
H1371       H  0.47012142  0.78943798  0.00531317     0.16000
H1372       H  0.60395237  0.77276825  0.42266390     0.16100
H1373       H  0.53862437  0.72222905  0.00911328     0.16000
C1374       C  0.02627072  0.97028305  0.45556268     0.29900
C1375       C  0.97594650  0.50876277  0.44684954     0.29900
C1376       C  0.99423861  0.95367851  0.45321654    -0.06300
C1377       C  0.02281175  0.99325090  0.97940414    -0.07100
C1378       C  0.03044014  0.49598860  0.42827121    -0.06900
C1379       C  0.96755644  0.97134447  0.44997475    -0.06300
C1380       C  0.99576817  0.51226316  0.97496076    -0.07100
C1381       C  0.00366804  0.51349399  0.42507229    -0.06900
C1382       C  0.94318048  0.95350257  0.44028179    -0.32300
N1383       N  0.95484112  0.92646483  0.43318397     0.14200
C1384       C  0.98576562  0.92651480  0.44080280    -0.32300
H1385       H  0.00200850  0.90986819  0.43248632     0.16100
C1386       C  0.98335611  0.51844717  0.00360555    -0.31300
N1387       N  0.99990457  0.00509975  0.02295983     0.12900
C1388       C  0.02411310  0.98996003  0.01042577    -0.31300
C1389       C  0.01294450  0.54037266  0.41344600    -0.31600
N1390       N  0.04386656  0.53995555  0.40691616     0.13400
H1391       H  0.99847993  0.56007815  0.41360602     0.16000
C1392       C  0.05489175  0.51318785  0.41596727    -0.31600
H1393       H  0.07930025  0.50706193  0.41388545     0.16000
H1394       H  0.03959912  0.97530260  0.02283663     0.16000
H1395       H  0.92035895  0.96132297  0.43289480     0.16100
H1396       H  0.96061749  0.52828551  0.00839125     0.16000
O1397       O  0.69286944  0.86758913  0.24644368    -0.81900
C1398       C  0.56270660  0.88150529  0.26564305     0.97500
O1399       O  0.57604146  0.89072222  0.24103620    -0.71000
O1400       O  0.62643026  0.92406410  0.24936027    -0.71800
Al1401     Al  0.62156588  0.88824451  0.22777243     1.49000
C1402       C  0.64734079  0.93290426  0.26744686     0.92700
O1403       O  0.64627826  0.87598175  0.31781642    -0.80800
O1404       O  0.63896633  0.80718732  0.25989134    -0.74400
Al1405     Al  0.66769019  0.87134715  0.28044254     1.90100
O1406       O  0.61885370  0.83510861  0.31264520    -0.73400
O1407       O  0.58947138  0.82719694  0.23080307    -0.73300
O1408       O  0.57507941  0.86102010  0.28092240    -0.79000
O1409       O  0.61494227  0.85611125  0.19979617    -0.77200
O1410       O  0.63236483  0.86528356  0.25918336    -1.13300
O1411       O  0.66521984  0.88966566  0.21066870    -0.72500
C1412       C  0.69080048  0.87779947  0.22002762     0.98200
C1413       C  0.63057020  0.85528331  0.32928004     0.94600
Al1414     Al  0.60762957  0.83528215  0.26999085     1.55600
O1415       O  0.66690154  0.91459200  0.27835334    -0.77100
C1416       C  0.59832077  0.83346496  0.20413659     0.98800
C1417       C  0.66474512  0.80550794  0.27405048     0.93700
O1418       O  0.67627641  0.82852018  0.28710473    -0.82400
O1419       O  0.68782141  0.61014782  0.32051206    -0.81900
C1420       C  0.55818787  0.61360224  0.31590998     0.97500
O1421       O  0.57673344  0.59177236  0.32104719    -0.71000
O1422       O  0.63355988  0.56362546  0.32314962    -0.74600
Al1423     Al  0.61789251  0.59794471  0.34272006     1.49000
C1424       C  0.64365013  0.55765772  0.29709611     0.92700
O1425       O  0.63346041  0.62904045  0.25401634    -0.80800
O1426       O  0.63677246  0.68538874  0.30613058    -0.74400
Al1427     Al  0.65919754  0.61976494  0.28834637     1.90100
O1428       O  0.59396516  0.65387548  0.27482314    -0.73400
O1429       O  0.61509641  0.66688961  0.35720066    -0.73300
O1430       O  0.56650782  0.63885394  0.32563660    -0.79000
O1431       O  0.59925197  0.62388576  0.37356566    -0.77200
O1432       O  0.62811257  0.62554882  0.31530205    -1.13300
O1433       O  0.65863095  0.60352320  0.36262020    -0.72500
C1434       C  0.68535173  0.60728481  0.34935960     0.98200
C1435       C  0.60716924  0.64214654  0.25188158     0.94600
Al1436     Al  0.60518175  0.65847816  0.31580529     1.55600
O1437       O  0.64990044  0.57854216  0.27915512    -0.77100
C1438       C  0.60480883  0.65105082  0.37854843     0.98800
C1439       C  0.66414715  0.68440825  0.29588122     0.93700
O1440       O  0.67657867  0.65975766  0.28950091    -0.82400
O1441       O  0.31657021  0.88221357  0.31804446    -0.81900
C1442       C  0.44174473  0.88892100  0.32308977     0.97500
O1443       O  0.42057861  0.90823416  0.33004380    -0.71000
O1444       O  0.36049454  0.93057493  0.32993671    -0.74600
Al1445     Al  0.38014174  0.89798912  0.34873369     1.49000
C1446       C  0.35932789  0.93752460  0.30255912     0.92700
O1447       O  0.38134809  0.86692922  0.25883603    -0.80800
O1448       O  0.36430818  0.81068551  0.32183369    -0.74400
Al1449     Al  0.35024731  0.87473005  0.28954905     1.90100
O1450       O  0.40823746  0.83343720  0.28404410    -0.73400
O1451       O  0.39234520  0.83302896  0.36798779    -0.73300
O1452       O  0.43705859  0.86110787  0.32732190    -0.79000
O1453       O  0.40341290  0.87775239  0.38017669    -0.77200
O1454       O  0.37611498  0.86966791  0.32072784    -1.13300
O1455       O  0.33870801  0.88676020  0.36469246    -0.72500
C1456       C  0.31445573  0.88287613  0.34723465     0.98200
C1457       C  0.40229680  0.84709333  0.25988948     0.94600
Al1458     Al  0.39869057  0.83723962  0.32510473     1.55600
O1459       O  0.35965813  0.91686150  0.28302553    -0.77100
C1460       C  0.40505903  0.85071270  0.38609410     0.98800
C1461       C  0.34319314  0.81009607  0.30171981     0.93700
O1462       O  0.33620975  0.83353763  0.28736879    -0.82400
O1463       O  0.32012583  0.61629868  0.25059724    -0.81900
C1464       C  0.44467633  0.61849309  0.23733192     0.97500
O1465       O  0.42537739  0.59699878  0.23231945    -0.71000
O1466       O  0.36761918  0.57087830  0.23764114    -0.74600
Al1467     Al  0.38292284  0.60365951  0.21611837     1.49000
C1468       C  0.36686509  0.56465275  0.26520223     0.92700
O1469       O  0.38791976  0.63901225  0.30502503    -0.80800
O1470       O  0.36305402  0.69106811  0.24284082    -0.74400
Al1471     Al  0.35510165  0.62715201  0.27674356     1.90100
O1472       O  0.41173251  0.67142931  0.27534615    -0.73400
O1473       O  0.38441318  0.66818511  0.19519038    -0.73300
O1474       O  0.43742277  0.64485855  0.22890144    -0.79000
O1475       O  0.40047819  0.62520688  0.18164859    -0.77200
O1476       O  0.37836781  0.63253731  0.24362291    -1.13300
O1477       O  0.34004440  0.61120417  0.20296901    -0.72500
C1478       C  0.31664842  0.61444966  0.22152457     0.98200
C1479       C  0.40708211  0.66038807  0.30115404     0.94600
Al1480     Al  0.39781700  0.66606253  0.23599934     1.55600
O1481       O  0.36731574  0.58578529  0.28423615    -0.77100
C1482       C  0.39493332  0.65167385  0.17485115     0.98800
C1483       C  0.34317456  0.69083490  0.26405412     0.93700
O1484       O  0.33811657  0.66719716  0.27876478    -0.82400
O1485       O  0.17804471  0.87066371  0.31847795    -0.81900
C1486       C  0.05417823  0.85849615  0.33199339     0.97500
O1487       O  0.07703967  0.84081639  0.33725954    -0.71000
O1488       O  0.13742732  0.82276136  0.33065750    -0.74600
Al1489     Al  0.11778314  0.85348586  0.35311846     1.49000
C1490       C  0.13732626  0.81718118  0.30277707     0.92700
O1491       O  0.10940916  0.88936864  0.26312311    -0.80800
O1492       O  0.12209741  0.94240150  0.32327650    -0.74400
Al1493     Al  0.14208372  0.87955886  0.29256239     1.90100
O1494       O  0.07678472  0.91374312  0.29277496    -0.73400
O1495       O  0.10482916  0.91853887  0.37257646    -0.73300
O1496       O  0.05632388  0.88583187  0.33999024    -0.79000
O1497       O  0.09822566  0.87374019  0.38779580    -0.77200
O1498       O  0.11765501  0.88239270  0.32538023    -1.13300
O1499       O  0.15938653  0.86588323  0.36626382    -0.72500
C1500       C  0.18238445  0.86916289  0.34740325     0.98200
C1501       C  0.08456559  0.90461899  0.26686967     0.94600
Al1502     Al  0.09205434  0.91256286  0.33185785     1.55600
O1503       O  0.13253805  0.83806958  0.28435923    -0.77100
C1504       C  0.10015103  0.90095770  0.39393508     0.98800
C1505       C  0.14575880  0.94327301  0.30593582     0.93700
O1506       O  0.15591182  0.92004725  0.29311733    -0.82400
O1507       O  0.18738408  0.62734298  0.25716847    -0.81900
C1508       C  0.05927054  0.64725515  0.26469382     0.97500
O1509       O  0.07527643  0.65600790  0.24138049    -0.71000
O1510       O  0.12924711  0.68335832  0.24978679    -0.74600
Al1511     Al  0.11999122  0.64801407  0.22956534     1.49000
C1512       C  0.14455118  0.69132297  0.27277157     0.92700
O1513       O  0.13033273  0.63102744  0.32385139    -0.80800
O1514       O  0.12780885  0.56728770  0.25924045    -0.74400
Al1515     Al  0.15727522  0.62890171  0.28818766     1.90100
O1516       O  0.10538397  0.59069219  0.31101258    -0.73400
O1517       O  0.07948750  0.59252070  0.23082738    -0.73300
O1518       O  0.06742878  0.62476224  0.27993483    -0.79000
O1519       O  0.10936164  0.61731873  0.20039105    -0.77200
O1520       O  0.12532904  0.62485732  0.26202523    -1.13300
O1521       O  0.16347332  0.64296407  0.21548882    -0.72500
C1522       C  0.18779709  0.63320562  0.22913239     0.98200
C1523       C  0.11255637  0.60964208  0.33073371     0.94600
Al1524     Al  0.09762006  0.59638113  0.26930553     1.55600
O1525       O  0.15752625  0.67200573  0.28932810    -0.77100
C1526       C  0.08677229  0.59984956  0.20435689     0.98800
C1527       C  0.15152761  0.56381673  0.27646028     0.93700
O1528       O  0.16323945  0.58565530  0.29152997    -0.82400
O1529       O  0.81642287  0.86252383  0.25225916    -0.81900
C1530       C  0.94532816  0.85347175  0.25291132     0.97500
O1531       O  0.92309282  0.83550482  0.24620690    -0.71000
O1532       O  0.86356624  0.81532338  0.24701545    -0.74600
Al1533     Al  0.88317297  0.84803175  0.22704091     1.49000
C1534       C  0.85705439  0.81017860  0.27444232     0.92700
O1535       O  0.87235612  0.88255609  0.31855578    -0.80800
O1536       O  0.87886623  0.93399423  0.27322370    -0.74400
Al1537     Al  0.84685256  0.87231222  0.28336178     1.90100
O1538       O  0.91793688  0.89440668  0.29811293    -0.73400
O1539       O  0.89720515  0.91685721  0.21966298    -0.73300
O1540       O  0.94213277  0.88048166  0.24595985    -0.79000
O1541       O  0.90352517  0.87407080  0.19700632    -0.77200
O1542       O  0.87835014  0.87505981  0.25659705    -1.13300
O1543       O  0.84317906  0.85893784  0.20875771    -0.72500
C1544       C  0.81726629  0.86229717  0.22322885     0.98200
C1545       C  0.90131494  0.88926860  0.32118304     0.94600
Al1546     Al  0.90662249  0.90409366  0.25895097     1.55600
O1547       O  0.85519644  0.83146295  0.29314698    -0.77100
C1548       C  0.90074677  0.90201169  0.19552996     0.98800
C1549       C  0.84978976  0.93560665  0.27842019     0.93700
O1550       O  0.83296944  0.91255346  0.27866564    -0.82400
O1551       O  0.80964125  0.61865166  0.32501379    -0.81900
C1552       C  0.93766774  0.64168117  0.30926440     0.97500
O1553       O  0.92368961  0.64834786  0.33449350    -0.71000
O1554       O  0.87060494  0.67748359  0.32792239    -0.74600
Al1555     Al  0.87874953  0.64133624  0.34724999     1.49000
C1556       C  0.85136782  0.68542892  0.30790826     0.92700
O1557       O  0.85822375  0.62834395  0.25436391    -0.80800
O1558       O  0.87007062  0.56132569  0.31265554    -0.74400
Al1559     Al  0.83609483  0.62303974  0.29184384     1.90100
O1560       O  0.88750953  0.58930262  0.26029302    -0.73400
O1561       O  0.91803139  0.58522618  0.34169956    -0.73300
O1562       O  0.92765324  0.62071157  0.29269602    -0.79000
O1563       O  0.88777279  0.60845320  0.37359129    -0.77200
O1564       O  0.87083115  0.61907617  0.31422403    -1.13300
O1565       O  0.83547837  0.63814979  0.36374569    -0.72500
C1566       C  0.81074024  0.62629338  0.35250961     0.98200
C1567       C  0.87433434  0.60777536  0.24304078     0.94600
Al1568     Al  0.89849152  0.59166941  0.30294176     1.55600
O1569       O  0.83495567  0.66618599  0.29386296    -0.77100
C1570       C  0.90734595  0.58826378  0.36836463     0.98800
C1571       C  0.84409328  0.55765388  0.29909540     0.93700
O1572       O  0.83047821  0.57947923  0.28598172    -0.82400
C1573       C  0.85214773  0.77881490  0.28415953    -0.05600
C1574       C  0.86117986  0.76975172  0.31340076    -0.33000
C1575       C  0.85987005  0.73970039  0.32173730     0.36300
C1576       C  0.84919323  0.71780309  0.30074153    -0.05900
C1577       C  0.83858288  0.72715665  0.27204849    -0.32900
C1578       C  0.84002766  0.75722519  0.26370915     0.36200
H1579       H  0.87036662  0.78587586  0.32955474     0.16500
O1580       O  0.86981473  0.73198224  0.35036857    -0.60400
H1581       H  0.83010149  0.71099694  0.25558176     0.16600
O1582       O  0.82981841  0.76519563  0.23525246    -0.60500
H1583       H  0.80784050  0.77207195  0.23832449     0.43600
H1584       H  0.85053221  0.73226119  0.36321513     0.43500
C1585       C  0.83684726  0.96492066  0.28678214    -0.05600
C1586       C  0.82503890  0.98405518  0.26438052    -0.33000
C1587       C  0.82352262  0.51437379  0.26820744     0.36300
C1588       C  0.83258500  0.52656855  0.29657639    -0.05900
C1589       C  0.83931825  0.50710597  0.32068071    -0.32900
C1590       C  0.84322692  0.97628786  0.31606759     0.36200
H1591       H  0.81997361  0.97556126  0.24172796     0.16500
O1592       O  0.81513478  0.53240701  0.24458526    -0.60400
H1593       H  0.84598435  0.51591955  0.34282519     0.16600
O1594       O  0.85459937  0.95811834  0.33851071    -0.60500
H1595       H  0.83594687  0.94712222  0.34621688     0.43600
H1596       H  0.79273382  0.53748479  0.24842585     0.43500
C1597       C  0.02903329  0.66101239  0.27426976    -0.05600
C1598       C  0.00333855  0.65956520  0.25446819    -0.33000
C1599       C  0.97255600  0.65794290  0.26613826     0.36300
C1600       C  0.96707600  0.65647297  0.29804622    -0.05900
C1601       C  0.99236417  0.66272069  0.31762639    -0.32900
C1602       C  0.02312093  0.66581867  0.30572920     0.36200
H1603       H  0.00716387  0.65643358  0.23020218     0.16500
O1604       O  0.94809994  0.65463923  0.24607856    -0.60400
H1605       H  0.98885993  0.66258729  0.34211656     0.16600
O1606       O  0.04776045  0.67054687  0.32537930    -0.60500
H1607       H  0.05402445  0.69154647  0.32234152     0.43600
H1608       H  0.93974105  0.67497331  0.24328360     0.43500
C1609       C  0.02674072  0.84877760  0.31238256    -0.05600
C1610       C  0.03059764  0.84835743  0.28041064    -0.33000
C1611       C  0.00442972  0.84742236  0.26042547     0.36300
C1612       C  0.97348131  0.84498847  0.27196337    -0.05900
C1613       C  0.96993238  0.84189855  0.30387048    -0.32900
C1614       C  0.99606251  0.84432365  0.32395666     0.36200
H1615       H  0.05393751  0.85114807  0.27080500     0.16500
O1616       O  0.00923176  0.85132178  0.22975943    -0.60400
H1617       H  0.94646693  0.84019697  0.31351611     0.16600
O1618       O  0.99102417  0.84427432  0.35485947    -0.60500
H1619       H  0.99234422  0.82313695  0.36087726     0.43600
H1620       H  0.01505598  0.83143629  0.22178682     0.43500
C1621       C  0.14229926  0.78581426  0.29295475    -0.05600
C1622       C  0.15964253  0.76643026  0.31175001    -0.33000
C1623       C  0.16178468  0.73587996  0.30516663     0.36300
C1624       C  0.14594744  0.72391549  0.27964583    -0.05900
C1625       C  0.12963489  0.74365979  0.26033718    -0.32900
C1626       C  0.12765734  0.77410255  0.26683568     0.36200
H1627       H  0.17124281  0.77494992  0.33200477     0.16500
O1628       O  0.17858153  0.71796619  0.32436957    -0.60400
H1629       H  0.11735466  0.73541507  0.24035678     0.16600
O1630       O  0.11002352  0.79189017  0.24821849    -0.60500
H1631       H  0.08865178  0.79215739  0.25747915     0.43600
H1632       H  0.20021737  0.71746183  0.31573716     0.43500
C1633       C  0.15911335  0.97265549  0.29815831    -0.05600
C1634       C  0.16276078  0.98008364  0.26723798    -0.33000
C1635       C  0.16025209  0.51103514  0.26036150     0.36300
C1636       C  0.16107367  0.53312988  0.28323758    -0.05900
C1637       C  0.16246963  0.52460599  0.31397606    -0.32900
C1638       C  0.16132337  0.99527438  0.32036959     0.36200
H1639       H  0.16089325  0.96299765  0.24981689     0.16500
O1640       O  0.15818152  0.51865371  0.23017520    -0.60400
H1641       H  0.16239608  0.54131594  0.33187547     0.16600
O1642       O  0.15789798  0.98883791  0.35075449    -0.60500
H1643       H  0.17935938  0.98362215  0.35783630     0.43600
H1644       H  0.18029587  0.52139667  0.22332878     0.43500
C1645       C  0.28393264  0.61733723  0.21032969    -0.05600
C1646       C  0.27167887  0.64600492  0.20599322    -0.33000
C1647       C  0.23900045  0.65125141  0.20750801     0.36300
C1648       C  0.21814332  0.62762425  0.21345873    -0.05900
C1649       C  0.23023868  0.59860707  0.21466778    -0.32900
C1650       C  0.26284042  0.59342177  0.21350046     0.36200
H1651       H  0.28763295  0.66479582  0.20463584     0.16500
O1652       O  0.22825695  0.67993716  0.20759004    -0.60400
H1653       H  0.21460300  0.58025251  0.21997897     0.16600
O1654       O  0.27399763  0.56531184  0.21851305    -0.60500
H1655       H  0.27517334  0.56335573  0.24102023     0.43600
H1656       H  0.21742110  0.68237046  0.18773937     0.43500
C1657       C  0.28221360  0.87756493  0.35933568    -0.05600
C1658       C  0.26846817  0.84973874  0.35312792    -0.33000
C1659       C  0.23558668  0.84614551  0.35212564     0.36300
C1660       C  0.21559399  0.87040243  0.35802318    -0.05900
C1661       C  0.22920326  0.89773808  0.36654176    -0.32900
C1662       C  0.26227267  0.90144340  0.36711722     0.36200
H1663       H  0.28329739  0.83134883  0.34609509     0.16500
O1664       O  0.22319829  0.81935793  0.34300906    -0.60400
H1665       H  0.21422091  0.91689599  0.37012659     0.16600
O1666       O  0.27463514  0.92927262  0.37161356    -0.60500
H1667       H  0.28274899  0.92924624  0.39281562     0.43600
H1668       H  0.22178511  0.82045607  0.32044897     0.43500
C1669       C  0.32976432  0.71997569  0.27388521    -0.05600
C1670       C  0.32698616  0.74295978  0.25240506    -0.33000
C1671       C  0.32664568  0.77293016  0.26157981     0.36300
C1672       C  0.33013602  0.78050534  0.29269110    -0.05900
C1673       C  0.32917137  0.75750444  0.31428783    -0.32900
C1674       C  0.32847839  0.72752597  0.30515289     0.36200
H1675       H  0.32789907  0.73778854  0.22823432     0.16500
O1676       O  0.32730188  0.79446087  0.23960893    -0.60400
H1677       H  0.33170317  0.76270459  0.33833297     0.16600
O1678       O  0.33119088  0.70601197  0.32697958    -0.60500
H1679       H  0.30919797  0.70059016  0.33234250     0.43600
H1680       H  0.30532180  0.80179356  0.23835363     0.43500
C1681       C  0.35822167  0.96997519  0.29431980    -0.05600
C1682       C  0.35553028  0.97866757  0.26379242    -0.33000
C1683       C  0.36644973  0.50949779  0.25120626     0.36300
C1684       C  0.36541003  0.53230276  0.27385320    -0.05900
C1685       C  0.36278360  0.52358706  0.30442373    -0.32900
C1686       C  0.36068586  0.99277972  0.31685475     0.36200
H1687       H  0.35325584  0.96198014  0.24602890     0.16500
O1688       O  0.36959981  0.51623973  0.22086769    -0.60400
H1689       H  0.36189198  0.54028139  0.32229420     0.16600
O1690       O  0.36245709  0.98593947  0.34726189    -0.60500
H1691       H  0.38532561  0.98519064  0.35187942     0.43600
H1692       H  0.34775110  0.51700736  0.21288278     0.43500
C1693       C  0.52776877  0.61214223  0.29734803    -0.05600
C1694       C  0.51819625  0.58704051  0.28002247    -0.33000
C1695       C  0.49138446  0.58806052  0.26025594     0.36300
C1696       C  0.47433126  0.61482136  0.25631478    -0.05900
C1697       C  0.48419576  0.63949554  0.27352478    -0.32900
C1698       C  0.50951093  0.63834146  0.29391230     0.36200
H1699       H  0.53163906  0.56670390  0.28149592     0.16500
O1700       O  0.48292877  0.56314332  0.24412796    -0.60400
H1701       H  0.47173451  0.66033668  0.27179212     0.16600
O1702       O  0.51596762  0.66354630  0.31053959    -0.60500
H1703       H  0.52697213  0.67709057  0.29623668     0.43600
H1704       H  0.46953048  0.55149011  0.25827876     0.43500
C1705       C  0.78119903  0.62076182  0.36978846    -0.05600
C1706       C  0.75996355  0.64433700  0.37358234    -0.33000
C1707       C  0.72718200  0.63935567  0.37198288     0.36300
C1708       C  0.71520881  0.61051931  0.36668547    -0.05900
C1709       C  0.73624582  0.58658862  0.36736629    -0.32900
C1710       C  0.76898009  0.59152270  0.36919782     0.36200
H1711       H  0.76866885  0.66697387  0.37348967     0.16500
O1712       O  0.70723554  0.66325323  0.37166339    -0.60400
H1713       H  0.72765495  0.56430699  0.36290832     0.16600
O1714       O  0.78910603  0.56783980  0.36627056    -0.60500
H1715       H  0.78888364  0.56246160  0.34428726     0.43600
H1716       H  0.70572963  0.66899720  0.34991203     0.43500
C1717       C  0.53225588  0.89345276  0.27841749    -0.05600
C1718       C  0.52971629  0.89601427  0.31045250    -0.33000
C1719       C  0.50035694  0.89788990  0.32532222     0.36300
C1720       C  0.47231505  0.89756829  0.30838146    -0.05900
C1721       C  0.47473457  0.89815950  0.27621649    -0.32900
C1722       C  0.50436474  0.89603588  0.26120568     0.36200
H1723       H  0.55070587  0.89442456  0.32426758     0.16500
O1724       O  0.49931239  0.89762502  0.35657401    -0.60400
H1725       H  0.45341683  0.89763619  0.26264149     0.16600
O1726       O  0.50535611  0.89305771  0.23007255    -0.60500
H1727       H  0.50299174  0.91348680  0.22211994     0.43600
H1728       H  0.50136321  0.91871643  0.36285998     0.43500
C1729       C  0.78673355  0.86675875  0.20719497    -0.05600
C1730       C  0.77414708  0.89559780  0.20557692    -0.33000
C1731       C  0.74140096  0.90017966  0.20259873     0.36300
C1732       C  0.72059309  0.87571741  0.20221756    -0.05900
C1733       C  0.73375231  0.84710972  0.19928978    -0.32900
C1734       C  0.76645104  0.84253919  0.20187797     0.36200
H1735       H  0.78933743  0.91456649  0.20978727     0.16500
O1736       O  0.72977694  0.92845142  0.20526760    -0.60400
H1737       H  0.71832262  0.82788063  0.19948377     0.16600
O1738       O  0.77770044  0.81409142  0.20339932    -0.60500
H1739       H  0.78772029  0.81033197  0.18328298     0.43600
H1740       H  0.72086135  0.93308217  0.18494623     0.43500
C1741       C  0.67836262  0.77536211  0.27814837    -0.05600
C1742       C  0.68293570  0.76476395  0.30780475    -0.33000
C1743       C  0.68306817  0.73411640  0.31374571     0.36300
C1744       C  0.67942125  0.71343312  0.28970819    -0.05900
C1745       C  0.67915519  0.72404743  0.25962476    -0.32900
C1746       C  0.67858482  0.75473895  0.25377790     0.36200
H1747       H  0.68284656  0.78015180  0.32676581     0.16500
O1748       O  0.68275384  0.72469575  0.34343594    -0.60400
H1749       H  0.67577410  0.70864965  0.24081244     0.16600
O1750       O  0.67532363  0.76430777  0.22432184    -0.60500
H1751       H  0.69709403  0.76845769  0.21719686     0.43600
H1752       H  0.70499413  0.72606535  0.35025374     0.43500
C1753       C  0.64821760  0.96525112  0.27542662    -0.05600
C1754       C  0.63604862  0.98615006  0.25467801    -0.33000
C1755       C  0.65895787  0.50485853  0.30971855     0.36300
C1756       C  0.64777293  0.52576798  0.28833376    -0.05900
C1757       C  0.63856026  0.51547664  0.25943175    -0.32900
C1758       C  0.65885981  0.97560319  0.30402529     0.36200
H1759       H  0.62713115  0.97880519  0.23274120     0.16500
O1760       O  0.66905884  0.51402718  0.33796992    -0.60400
H1761       H  0.62975253  0.53100755  0.24272263     0.16600
O1762       O  0.66990608  0.95614511  0.32541793    -0.60500
H1763       H  0.65092017  0.94920962  0.33659047     0.43600
H1764       H  0.65106394  0.51021791  0.35192101     0.43500
C1765       C  0.09772920  0.60550007  0.36050471    -0.05600
C1766       C  0.06479743  0.60641677  0.35977203    -0.33000
C1767       C  0.04677864  0.58559758  0.37534785     0.36300
C1768       C  0.06161319  0.56444386  0.39422563    -0.05900
C1769       C  0.09446871  0.56667258  0.39864118    -0.32900
C1770       C  0.11253971  0.58695299  0.38174283     0.36200
H1771       H  0.05306664  0.61941008  0.34260443     0.16500
O1772       O  0.01518282  0.58417732  0.36885621    -0.60400
H1773       H  0.10646846  0.55147000  0.41366536     0.16600
O1774       O  0.14480278  0.58546058  0.38291600    -0.60500
H1775       H  0.15146348  0.60356233  0.39418419     0.43600
H1776       H  0.01339501  0.57057204  0.35105665     0.43500
C1777       C  0.05549474  0.95017150  0.46031847    -0.05600
C1778       C  0.08527319  0.96047175  0.45133801    -0.33000
C1779       C  0.10377345  0.94263005  0.43202128     0.36300
C1780       C  0.09342762  0.91360103  0.42464391    -0.05900
C1781       C  0.07050442  0.90068845  0.44357341    -0.32900
C1782       C  0.05282051  0.91898821  0.46326104     0.36200
H1783       H  0.09157302  0.98354005  0.45475463     0.16500
O1784       O  0.12919956  0.95495020  0.41737057    -0.60400
H1785       H  0.06414755  0.87751159  0.44097844     0.16600
O1786       O  0.03093540  0.90653348  0.48244712    -0.60500
H1787       H  0.03855581  0.91101579  0.50335133     0.43600
H1788       H  0.14744801  0.95093175  0.43081215     0.43500
C1789       C  0.94309128  0.91014530  0.40748363    -0.05600
C1790       C  0.96143227  0.90975770  0.38095149    -0.33000
C1791       C  0.94837515  0.90225340  0.35308177     0.36300
C1792       C  0.91640291  0.89319790  0.35129158    -0.05900
C1793       C  0.89858631  0.89126335  0.37832115    -0.32900
C1794       C  0.91167621  0.90019020  0.40631103     0.36200
H1795       H  0.98538998  0.91817022  0.38120370     0.16500
O1796       O  0.96688508  0.90569769  0.32759483    -0.60400
H1797       H  0.87406311  0.88451431  0.37755670     0.16600
O1798       O  0.89348456  0.90005079  0.43221100    -0.60500
H1799       H  0.88055747  0.91832299  0.43114089     0.43600
H1800       H  0.96557291  0.92707415  0.32243926     0.43500
C1801       C  0.94844972  0.52604509  0.43195095    -0.05600
C1802       C  0.93732091  0.55352008  0.44320602    -0.33000
C1803       C  0.92157178  0.57371660  0.42363626     0.36300
C1804       C  0.91759356  0.56682562  0.39228774    -0.05900
C1805       C  0.92559031  0.53844654  0.38223350    -0.32900
C1806       C  0.94050059  0.51826591  0.40120494     0.36200
H1807       H  0.94305187  0.56039230  0.46623943     0.16500
O1808       O  0.91260429  0.60088328  0.43480362    -0.60400
H1809       H  0.92210422  0.53225190  0.35852089     0.16600
O1810       O  0.95257630  0.49317951  0.38753830    -0.60500
H1811       H  0.92436941  0.97979094  0.38210683     0.43600
H1812       H  0.88997069  0.59859632  0.44006159     0.43500
C1813       C  0.59940421  0.83379535  0.41683129    -0.05600
C1814       C  0.62995277  0.82500251  0.40800552    -0.33000
C1815       C  0.64269459  0.83447438  0.38019689     0.36300
C1816       C  0.62544439  0.85412456  0.36213552    -0.05900
C1817       C  0.59914694  0.86833125  0.37434214    -0.32900
C1818       C  0.58610023  0.85867615  0.40186344     0.36200
H1819       H  0.64238583  0.80823319  0.42080835     0.16500
O1820       O  0.67109307  0.82357176  0.37003976    -0.60400
H1821       H  0.58730263  0.88537180  0.36145602     0.16600
O1822       O  0.56032818  0.87337061  0.41325068    -0.60500
H1823       H  0.54353422  0.87122838  0.39767102     0.43600
H1824       H  0.66994716  0.80171331  0.37232810     0.43500
C1825       C  0.46410487  0.70667070  0.36597826    -0.05600
C1826       C  0.44522178  0.72195841  0.34526597    -0.33000
C1827       C  0.42521373  0.70679623  0.32558554     0.36300
C1828       C  0.42355994  0.67548815  0.32624579    -0.05900
C1829       C  0.44137130  0.65992334  0.34765372    -0.32900
C1830       C  0.46178386  0.67533825  0.36748451     0.36200
H1831       H  0.44654255  0.74592256  0.34376965     0.16500
O1832       O  0.40732750  0.72285027  0.30546869    -0.60400
H1833       H  0.44048597  0.63589660  0.34814304     0.16600
O1834       O  0.47864258  0.65970758  0.38862225    -0.60500
H1835       H  0.49533912  0.64933952  0.37681941     0.43600
H1836       H  0.42210912  0.72924855  0.28917992     0.43500
C1837       C  0.47742049  0.80577726  0.43582422    -0.05600
C1838       C  0.44633562  0.80550330  0.44751487    -0.33000
C1839       C  0.42201506  0.82148859  0.43293185     0.36300
C1840       C  0.42898672  0.83959592  0.40769990    -0.05900
C1841       C  0.46015438  0.84189998  0.39791840    -0.32900
C1842       C  0.48360483  0.82409080  0.41013506     0.36200
H1843       H  0.44006461  0.79062703  0.46583524     0.16500
O1844       O  0.39148316  0.81838227  0.44273853    -0.60400
H1845       H  0.46575074  0.85469363  0.37783948     0.16600
O1846       O  0.51135500  0.82191946  0.39406989    -0.60500
H1847       H  0.50662956  0.80917454  0.37610499     0.43600
H1848       H  0.38323250  0.80074168  0.43168214     0.43500
C1849       C  0.56688317  0.70927423  0.44389971    -0.05600
C1850       C  0.55270670  0.68105538  0.44054176    -0.33000
C1851       C  0.56686024  0.65932286  0.42195110     0.36300
C1852       C  0.59589242  0.66563663  0.40768212    -0.05900
C1853       C  0.61339329  0.69010667  0.41822987    -0.32900
C1854       C  0.59953132  0.71096320  0.43795305     0.36200
H1855       H  0.52840239  0.67780111  0.44747948     0.16500
O1856       O  0.54980911  0.63458488  0.41395458    -0.60400
H1857       H  0.63724013  0.69373662  0.41009818     0.16600
O1858       O  0.61814164  0.73201293  0.45157917    -0.60500
H1859       H  0.62300144  0.72400819  0.47205909     0.43600
H1860       H  0.55755800  0.61868461  0.42754304     0.43500
C1861       C  0.01937905  0.55825845  0.14556702    -0.05600
C1862       C  0.05133862  0.55887793  0.13616152    -0.33000
C1863       C  0.07431143  0.57441763  0.15342919     0.36300
C1864       C  0.06515366  0.59019425  0.17981472    -0.05900
C1865       C  0.03321524  0.59191653  0.18721915    -0.32900
C1866       C  0.01081139  0.57523421  0.17171841     0.36200
H1867       H  0.05915577  0.54491992  0.11748715     0.16500
O1868       O  0.10561863  0.57124264  0.14631531    -0.60400
H1869       H  0.02588288  0.60355845  0.20778836     0.16600
O1870       O  0.98202347  0.57137095  0.18572590    -0.60500
H1871       H  0.97317521  0.59150697  0.18910443     0.43600
H1872       H  0.11151375  0.58977943  0.13560376     0.43500
C1873       C  0.02829754  0.94871817  0.20071069    -0.05600
C1874       C  0.01446508  0.93770010  0.22721452    -0.33000
C1875       C  0.03205674  0.92130011  0.24786625     0.36300
C1876       C  0.06400903  0.91429725  0.24155046    -0.05900
C1877       C  0.07708671  0.92309993  0.21352683    -0.32900
C1878       C  0.05948176  0.94064280  0.19327376     0.36200
H1879       H  0.99035713  0.94352385  0.23286322     0.16500
O1880       O  0.01813582  0.91349303  0.27498491    -0.60400
H1881       H  0.10154348  0.91829265  0.20834267     0.16600
O1882       O  0.07277440  0.94975842  0.16634940    -0.60500
H1883       H  0.08662374  0.96671212  0.17189955     0.43600
H1884       H  0.01743688  0.93197861  0.28738399     0.43500
C1885       C  0.87573372  0.60305434  0.20981132    -0.05600
C1886       C  0.86196540  0.57739134  0.19789749    -0.33000
C1887       C  0.86982723  0.56704070  0.16874177     0.36300
C1888       C  0.89350775  0.58184629  0.15162082    -0.05900
C1889       C  0.90212342  0.61073484  0.16137300    -0.32900
C1890       C  0.89335033  0.62132392  0.19036127     0.36200
H1891       H  0.84630394  0.56440066  0.21191187     0.16500
O1892       O  0.85505037  0.54197845  0.15796977    -0.60400
H1893       H  0.91821365  0.62396800  0.14787463     0.16600
O1894       O  0.90440607  0.64823642  0.20031983    -0.60500
H1895       H  0.88828529  0.66280904  0.19390129     0.43600
H1896       H  0.85983669  0.52603463  0.17276947     0.43500
C1897       C  0.92633051  0.96377130  0.12730135    -0.05600
C1898       C  0.90024171  0.96860411  0.14670502    -0.33000
C1899       C  0.88815545  0.94658164  0.16545100     0.36300
C1900       C  0.90293392  0.91883577  0.16653878    -0.05900
C1901       C  0.92454140  0.91151257  0.14330667    -0.32900
C1902       C  0.93586615  0.93375618  0.12324317     0.36200
H1903       H  0.89215501  0.99034098  0.15223072     0.16500
O1904       O  0.86420767  0.95360140  0.18545713    -0.60400
H1905       H  0.93544180  0.88980241  0.14296949     0.16600
O1906       O  0.95965760  0.92682429  0.10320407    -0.60500
H1907       H  0.97911668  0.92581744  0.11565945     0.43600
H1908       H  0.87364373  0.96715888  0.20089511     0.43500
C1909       C  0.59118615  0.64496590  0.22221543    -0.05600
C1910       C  0.55985515  0.65486755  0.22224946    -0.33000
C1911       C  0.54529167  0.66343611  0.19545023     0.36300
C1912       C  0.56171182  0.66137486  0.16750566    -0.05900
C1913       C  0.59221311  0.64946454  0.16697278    -0.32900
C1914       C  0.60694712  0.64093453  0.19411357     0.36200
H1915       H  0.54701817  0.65781310  0.24341527     0.16500
O1916       O  0.51593649  0.67609290  0.19726373    -0.60400
H1917       H  0.60508270  0.64818852  0.14562868     0.16600
O1918       O  0.63737490  0.63078625  0.19301427    -0.60500
H1919       H  0.63547494  0.60888503  0.19144289     0.43600
H1920       H  0.51982205  0.69764082  0.20025313     0.43500
C1921       C  0.42072464  0.83795381  0.23335110    -0.05600
C1922       C  0.45293866  0.83310598  0.23825861    -0.33000
C1923       C  0.46991319  0.81397426  0.21963184     0.36300
C1924       C  0.45460660  0.79904270  0.19556450    -0.05900
C1925       C  0.42291341  0.80560180  0.18909884    -0.32900
C1926       C  0.40595627  0.82521414  0.20778848     0.36200
H1927       H  0.46426459  0.84168609  0.25858611     0.16500
O1928       O  0.50078780  0.80822244  0.22674954    -0.60400
H1929       H  0.41105751  0.79472063  0.17023252     0.16600
O1930       O  0.37430157  0.82901326  0.20297958    -0.60500
H1931       H  0.37273790  0.84688041  0.18997563     0.43600
H1932       H  0.50030217  0.78966138  0.23880556     0.43500
C1933       C  0.56068657  0.77289898  0.13612873    -0.05600
C1934       C  0.57565066  0.76313319  0.16312941    -0.33000
C1935       C  0.59014674  0.78249465  0.18363722     0.36300
C1936       C  0.58955344  0.81311875  0.17859237    -0.05900
C1937       C  0.57760111  0.82344667  0.15064064    -0.32900
C1938       C  0.56321384  0.80367689  0.12948157     0.36200
H1939       H  0.57163778  0.74112493  0.17181082     0.16500
O1940       O  0.60178730  0.77140898  0.21047412    -0.60400
H1941       H  0.57699663  0.84708647  0.14631274     0.16600
O1942       O  0.54786967  0.81539255  0.10489286    -0.60500
H1943       H  0.56460249  0.81913078  0.08953721     0.43600
H1944       H  0.61869096  0.75737434  0.20447404     0.43500
C1945       C  0.40525007  0.66517591  0.14572780    -0.05600
C1946       C  0.42887912  0.65143827  0.12826978    -0.33000
C1947       C  0.45010679  0.66900918  0.11169936     0.36300
C1948       C  0.44945655  0.70017228  0.11580568    -0.05900
C1949       C  0.42015902  0.71248856  0.12347244    -0.32900
C1950       C  0.39826144  0.69524813  0.13962510     0.36200
H1951       H  0.43287236  0.62776076  0.12984236     0.16500
O1952       O  0.47240116  0.65554620  0.09365669    -0.60400
H1953       H  0.41638879  0.73616718  0.12155272     0.16600
O1954       O  0.37206065  0.70855709  0.15203340    -0.60500
H1955       H  0.37992849  0.72115899  0.16904560     0.43600
H1956       H  0.46778552  0.66212351  0.07257970     0.43500
C1957       C  0.53720589  0.75214271  0.62922475     0.29900
C1958       C  0.48429244  0.71736998  0.62346420     0.29900
C1959       C  0.51166486  0.75558368  0.65383912    -0.06300
C1960       C  0.51802891  0.75721349  0.59975578    -0.07100
C1961       C  0.54305857  0.71835998  0.62733332    -0.06900
C1962       C  0.48503302  0.73766043  0.65172984    -0.06300
C1963       C  0.49039425  0.73933310  0.59734207    -0.07100
C1964       C  0.51597199  0.70057056  0.62609444    -0.06900
C1965       C  0.46150321  0.75229419  0.66791000    -0.32300
N1966       N  0.47287779  0.77832210  0.67863067     0.14200
C1967       C  0.50313849  0.78074248  0.66979516    -0.32300
H1968       H  0.51712297  0.80072373  0.67231024     0.16100
C1969       C  0.48361682  0.73597538  0.56696834    -0.31300
N1970       N  0.50574366  0.75041166  0.55077264     0.12900
C1971       C  0.52757556  0.76215299  0.56989755    -0.31300
C1972       C  0.52407431  0.67481679  0.64135434    -0.31600
N1973       N  0.55522668  0.67507630  0.64806932     0.13400
H1974       H  0.50765224  0.65889081  0.65074528     0.16000
C1975       C  0.56725695  0.70106399  0.63816959    -0.31600
H1976       H  0.59084465  0.70868133  0.64349312     0.16000
H1977       H  0.55001142  0.77114874  0.56258885     0.16000
H1978       H  0.43732534  0.74546100  0.67088211     0.16100
H1979       H  0.46613169  0.72119823  0.55719760     0.16000
C1980       C  0.95128770  0.98905099  0.62631214     0.29900
C1981       C  0.99541417  0.53127671  0.63684088     0.29900
C1982       C  0.96997643  0.98748459  0.65624822    -0.06300
C1983       C  0.97786353  0.99095782  0.60204937    -0.07100
C1984       C  0.93904139  0.51914620  0.62733979    -0.06900
C1985       C  0.99276640  0.00929668  0.66057783    -0.06300
C1986       C  0.00112339  0.51150902  0.60857900    -0.07100
C1987       C  0.96127628  0.54132840  0.63153894    -0.06900
C1988       C  0.01715763  0.99648344  0.67674662    -0.32300
N1989       N  0.00925718  0.96830042  0.68339737     0.14200
C1990       C  0.98065647  0.96273497  0.67151114    -0.32300
H1991       H  0.96986215  0.94107665  0.67196637     0.16100
C1992       C  0.01053199  0.52041490  0.57996500    -0.31300
N1993       N  0.99512175  0.50410001  0.55895645     0.12900
C1994       C  0.97571391  0.98729448  0.57084323    -0.31300
C1995       C  0.94550621  0.56786104  0.63270369    -0.31600
N1996       N  0.91387526  0.56273583  0.63189064     0.13400
H1997       H  0.95643965  0.58897956  0.63780085     0.16000
C1998       C  0.91027516  0.53328031  0.62534313    -0.31600
H1999       H  0.88807181  0.52261769  0.62053529     0.16000
H2000       H  0.95837055  0.97409354  0.55874962     0.16000
H2001       H  0.03994860  0.00639252  0.68134656     0.16100
H2002       H  0.02489132  0.53958204  0.57460264     0.16000
C2003       C  0.49662708  0.78635650  0.94212327     0.29900
C2004       C  0.54020385  0.74176676  0.94302924     0.29900
C2005       C  0.53098812  0.79614661  0.94769537    -0.06300
C2006       C  0.49768615  0.75997553  0.47047737    -0.07100
C2007       C  0.49778624  0.76616118  0.91408617    -0.06900
C2008       C  0.55358913  0.77372632  0.94610316    -0.06300
C2009       C  0.52097121  0.73713497  0.47152071    -0.07100
C2010       C  0.52030292  0.74389776  0.91380527    -0.06900
C2011       C  0.58026253  0.78817832  0.93574033    -0.32300
N2012       N  0.57620975  0.81822737  0.93630275     0.14200
C2013       C  0.54601253  0.82300689  0.94512122    -0.32300
H2014       H  0.53413219  0.84406513  0.94577216     0.16100
C2015       C  0.52652396  0.73186975  0.50210334    -0.31300
N2016       N  0.50744908  0.74951904  0.51887215     0.12900
C2017       C  0.49048543  0.76699900  0.50032530    -0.31300
C2018       C  0.50889037  0.72188557  0.89448909    -0.31600
N2019       N  0.47948351  0.72891507  0.88525119     0.13400
H2020       H  0.52072814  0.70151802  0.88871908     0.16000
C2021       C  0.47268014  0.75582996  0.89722925    -0.31600
H2022       H  0.44953148  0.76584055  0.89702338     0.16000
H2023       H  0.47662767  0.78570174  0.50812529     0.16000
H2024       H  0.59903641  0.77738128  0.92338561     0.16100
H2025       H  0.54510477  0.71826367  0.51144189     0.16000
C2026       C  0.03462481  0.97283185  0.95343300     0.29900
C2027       C  0.97978508  0.50685057  0.94360517     0.29900
C2028       C  0.00354412  0.95701862  0.94345875    -0.06300
C2029       C  0.01956519  0.99387832  0.48042622    -0.07100
C2030       C  0.03415722  0.49201340  0.92660039    -0.06900
C2031       C  0.97786143  0.97502528  0.93841287    -0.06300
C2032       C  0.99246108  0.51419079  0.47792466    -0.07100
C2033       C  0.00810944  0.51012532  0.92217024    -0.06900
C2034       C  0.95298607  0.95767711  0.92904237    -0.32300
N2035       N  0.96335223  0.92961382  0.92525758     0.14200
C2036       C  0.99409810  0.92904490  0.93368653    -0.32300
H2037       H  0.00917659  0.91034760  0.92888976     0.16100
C2038       C  0.98007391  0.51831196  0.50693544    -0.31300
N2039       N  0.00191394  0.00757404  0.52582186     0.12900
C2040       C  0.02456392  0.99205138  0.51127941    -0.31300
C2041       C  0.01860869  0.53655004  0.91037744    -0.31600
N2042       N  0.04993410  0.53580186  0.90536265     0.13400
H2043       H  0.00414406  0.55606684  0.91018521     0.16000
C2044       C  0.05958018  0.50871228  0.91523139    -0.31600
H2045       H  0.08379214  0.50189513  0.91476509     0.16000
H2046       H  0.04072441  0.97710068  0.52247125     0.16000
H2047       H  0.93051600  0.96573943  0.92091046     0.16100
H2048       H  0.95689293  0.52679071  0.51245595     0.16000
O2049       O  0.69400365  0.86999911  0.75189608    -0.81900
C2050       C  0.56283433  0.88243315  0.76628964     0.97500
O2051       O  0.57703340  0.89184111  0.74221182    -0.71000
O2052       O  0.62664433  0.92589570  0.75162581    -0.71800
Al2053     Al  0.62303704  0.88959282  0.73038656     1.49000
C2054       C  0.64716060  0.93565665  0.76967528     0.92700
O2055       O  0.64446831  0.88099370  0.82111603    -0.80800
O2056       O  0.64135425  0.81017135  0.76548351    -0.74400
Al2057     Al  0.66777172  0.87506388  0.78484130     1.90100
O2058       O  0.61824417  0.83929231  0.81627911    -0.73400
O2059       O  0.59278327  0.82760946  0.73403671    -0.73300
O2060       O  0.57501752  0.86233814  0.78219071    -0.79000
O2061       O  0.61760030  0.85678764  0.70284606    -0.77200
O2062       O  0.63321613  0.86768764  0.76262877    -1.13300
O2063       O  0.66728105  0.89054990  0.71445856    -0.72500
C2064       C  0.69243907  0.87860339  0.72483314     0.98200
C2065       C  0.62858191  0.86036026  0.83260028     0.94600
Al2066     Al  0.60886686  0.83747964  0.77344728     1.55600
O2067       O  0.66734749  0.91813486  0.78072269    -0.77100
C2068       C  0.60186135  0.83362410  0.70741431     0.98800
C2069       C  0.66674715  0.80941449  0.78032113     0.93700
O2070       O  0.67682732  0.83276874  0.79377299    -0.82400
O2071       O  0.69231429  0.62506871  0.82933150    -0.81900
C2072       C  0.56054825  0.62378087  0.81367185     0.97500
O2073       O  0.57465139  0.60421393  0.82959684    -0.71000
O2074       O  0.62286245  0.57030617  0.81639363    -0.74600
Al2075     Al  0.61901822  0.60260052  0.84419796     1.49000
C2076       C  0.64656462  0.56195104  0.80162940     0.92700
O2077       O  0.64125292  0.62224549  0.75930151    -0.80800
O2078       O  0.65045403  0.68654604  0.82269073    -0.74400
Al2079     Al  0.66684669  0.62380189  0.79490952     1.90100
O2080       O  0.61789174  0.66478829  0.77094102    -0.73400
O2081       O  0.60395199  0.67115357  0.85599039    -0.73300
O2082       O  0.57429228  0.64759393  0.80700951    -0.79000
O2083       O  0.61084740  0.62862776  0.87820610    -0.77200
O2084       O  0.63262753  0.63010817  0.81832568    -1.13300
O2085       O  0.66248339  0.59818377  0.86107666    -0.72500
C2086       C  0.68864427  0.61118691  0.85416375     0.98200
C2087       C  0.62268013  0.64324997  0.75262773     0.94600
Al2088     Al  0.61331141  0.66465076  0.81458995     1.55600
O2089       O  0.66769950  0.58061758  0.79543475    -0.77100
C2090       C  0.60399604  0.65571874  0.87961731     0.98800
C2091       C  0.67160876  0.68832500  0.80286206     0.93700
O2092       O  0.67786922  0.66559366  0.78687932    -0.82400
O2093       O  0.31406899  0.88555215  0.81540147    -0.81900
C2094       C  0.43983009  0.89001774  0.82099797     0.97500
O2095       O  0.41870076  0.90975449  0.82652911    -0.71000
O2096       O  0.35888002  0.93270402  0.82523823    -0.74600
Al2097     Al  0.37797636  0.90061878  0.84530337     1.49000
C2098       C  0.35764407  0.93885235  0.79765711     0.92700
O2099       O  0.37805829  0.86604880  0.75634900    -0.80800
O2100       O  0.36155892  0.81202478  0.81993486    -0.74400
Al2101     Al  0.34745200  0.87596176  0.78704371     1.90100
O2102       O  0.40633806  0.83472564  0.78304514    -0.73400
O2103       O  0.38799087  0.83582269  0.86648078    -0.73300
O2104       O  0.43461312  0.86249719  0.82652258    -0.79000
O2105       O  0.40014931  0.88073628  0.87730364    -0.77200
O2106       O  0.37347109  0.87144808  0.81823867    -1.13300
O2107       O  0.33667349  0.89060524  0.86170887    -0.72500
C2108       C  0.31223583  0.88704108  0.84457893     0.98200
C2109       C  0.39989817  0.84712578  0.75830524     0.94600
Al2110     Al  0.39579711  0.83893225  0.82370144     1.55600
O2111       O  0.35815389  0.91763788  0.77873944    -0.77100
C2112       C  0.40058977  0.85389943  0.88428414     0.98800
C2113       C  0.33932875  0.81177845  0.80097330     0.93700
O2114       O  0.33206570  0.83525685  0.78684950    -0.82400
O2115       O  0.31713653  0.61819284  0.75235448    -0.81900
C2116       C  0.44244490  0.62413920  0.74520960     0.97500
O2117       O  0.42457994  0.60176241  0.73936346    -0.71000
O2118       O  0.36887712  0.57229623  0.74214780    -0.74600
Al2119     Al  0.38277320  0.60591724  0.72141766     1.49000
C2120       C  0.36468836  0.56594939  0.76936346     0.92700
O2121       O  0.38219146  0.63979715  0.80957225    -0.80800
O2122       O  0.35601234  0.69164769  0.74481254    -0.74400
Al2123     Al  0.35042102  0.62861939  0.78026346     1.90100
O2124       O  0.40351276  0.67543490  0.78189462    -0.73400
O2125       O  0.38364896  0.67063904  0.69921285    -0.73300
O2126       O  0.43406400  0.65033296  0.73738055    -0.79000
O2127       O  0.40080868  0.62747224  0.68770366    -0.77200
O2128       O  0.37522715  0.63462673  0.74820597    -1.13300
O2129       O  0.34027054  0.61131570  0.70623966    -0.72500
C2130       C  0.31574552  0.61538600  0.72320256     0.98200
C2131       C  0.39955515  0.66264449  0.80703568     0.94600
Al2132     Al  0.39305590  0.66913834  0.74130591     1.55600
O2133       O  0.36153809  0.58700738  0.78819683    -0.77100
C2134       C  0.39567806  0.65370290  0.68000798     0.98800
C2135       C  0.33692215  0.69206240  0.76666682     0.93700
O2136       O  0.33325254  0.66896637  0.78265694    -0.82400
O2137       O  0.17702339  0.86963471  0.81625397    -0.81900
C2138       C  0.05385766  0.85268992  0.83050038     0.97500
O2139       O  0.07765859  0.83620466  0.83549384    -0.71000
O2140       O  0.13822575  0.82144457  0.82743877    -0.74600
Al2141     Al  0.11767947  0.85095641  0.85095558     1.49000
C2142       C  0.13702783  0.81615395  0.79944417     0.92700
O2143       O  0.10896859  0.88893022  0.76112555    -0.80800
O2144       O  0.11530643  0.93992585  0.81881792    -0.74400
Al2145     Al  0.14092125  0.87855940  0.79070646     1.90100
O2146       O  0.07180982  0.90678692  0.79067921    -0.73400
O2147       O  0.10137133  0.91602197  0.86955362    -0.73300
O2148       O  0.05445762  0.87980760  0.83930642    -0.79000
O2149       O  0.09782429  0.87108309  0.88579439    -0.77200
O2150       O  0.11584624  0.87986082  0.82323004    -1.13300
O2151       O  0.15851171  0.86508090  0.86394600    -0.72500
C2152       C  0.18130290  0.86920062  0.84516476     0.98200
C2153       C  0.08210519  0.90067876  0.76468315     0.94600
Al2154     Al  0.08795341  0.90827581  0.82930216     1.55600
O2155       O  0.13171686  0.83724288  0.78138499    -0.77100
C2156       C  0.09881643  0.89852327  0.89138411     0.98800
C2157       C  0.14075524  0.94181046  0.80407486     0.93700
O2158       O  0.15393361  0.91903927  0.79322790    -0.82400
O2159       O  0.18844166  0.62805468  0.75359937    -0.81900
C2160       C  0.06021589  0.64408445  0.76393894     0.97500
O2161       O  0.07523665  0.65248605  0.73991120    -0.71000
O2162       O  0.12819481  0.68184651  0.74685252    -0.74600
Al2163     Al  0.11987036  0.64586540  0.72735755     1.49000
C2164       C  0.14365283  0.69028929  0.76956786     0.92700
O2165       O  0.13395496  0.62930063  0.82201334    -0.80800
O2166       O  0.13063222  0.56567424  0.75749078    -0.74400
Al2167     Al  0.15924804  0.62833349  0.78524181     1.90100
O2168       O  0.10922430  0.58863874  0.81005419    -0.73400
O2169       O  0.08059500  0.58997312  0.73043056    -0.73300
O2170       O  0.06954392  0.62230984  0.77974553    -0.79000
O2171       O  0.10995206  0.61431796  0.69911940    -0.77200
O2172       O  0.12674292  0.62325953  0.76005922    -1.13300
O2173       O  0.16306928  0.64231633  0.71229778    -0.72500
C2174       C  0.18807434  0.63384672  0.72560697     0.98200
C2175       C  0.11813175  0.60690047  0.82981783     0.94600
Al2176     Al  0.10000127  0.59426479  0.76839714     1.55600
O2177       O  0.15741462  0.67139516  0.78612754    -0.77100
C2178       C  0.08733067  0.59706659  0.70373705     0.98800
C2179       C  0.15499172  0.56287152  0.77402659     0.93700
O2180       O  0.16687464  0.58518928  0.78826675    -0.82400
O2181       O  0.81940594  0.85713698  0.75201287    -0.81900
C2182       C  0.94774583  0.84890907  0.74910522     0.97500
O2183       O  0.92534270  0.83137661  0.74190223    -0.71000
O2184       O  0.86611959  0.81135053  0.74443694    -0.74600
Al2185     Al  0.88508820  0.84440874  0.72423423     1.49000
C2186       C  0.86065359  0.80569456  0.77201307     0.92700
O2187       O  0.87658982  0.87811001  0.81693441    -0.80800
O2188       O  0.88129704  0.92981175  0.77091478    -0.74400
Al2189     Al  0.85053833  0.86751339  0.78210867     1.90100
O2190       O  0.92138255  0.89030628  0.79538959    -0.73400
O2191       O  0.89944073  0.91337110  0.71738139    -0.73300
O2192       O  0.94481555  0.87622650  0.74310853    -0.79000
O2193       O  0.90467627  0.87096530  0.69389804    -0.77200
O2194       O  0.88119334  0.87090531  0.75442892    -1.13300
O2195       O  0.84450346  0.85565511  0.70748662    -0.72500
C2196       C  0.81909224  0.85773904  0.72301688     0.98200
C2197       C  0.90550237  0.88511243  0.81889008     0.94600
Al2198     Al  0.90935498  0.90003789  0.75647919     1.55600
O2199       O  0.85987490  0.82669441  0.79118999    -0.77100
C2200       C  0.90235999  0.89899412  0.69293043     0.98800
C2201       C  0.85218617  0.93100003  0.77628752     0.93700
O2202       O  0.83593687  0.90759449  0.77770367    -0.82400
O2203       O  0.81105351  0.61295536  0.82525061    -0.81900
C2204       C  0.93813332  0.64012528  0.80706132     0.97500
O2205       O  0.92445038  0.64582041  0.83260753    -0.71000
O2206       O  0.87107222  0.67413543  0.82619877    -0.74600
Al2207     Al  0.87985339  0.63822053  0.84540549     1.49000
C2208       C  0.85078619  0.68166666  0.80702218     0.92700
O2209       O  0.85646023  0.62616299  0.75324326    -0.80800
O2210       O  0.87294571  0.55837673  0.80906301    -0.74400
Al2211     Al  0.83600698  0.61922264  0.79120235     1.90100
O2212       O  0.88809238  0.58848790  0.75738772    -0.73400
O2213       O  0.92019357  0.58312020  0.83813861    -0.73300
O2214       O  0.92789607  0.61990455  0.78971710    -0.79000
O2215       O  0.88985810  0.60533511  0.87095742    -0.77200
O2216       O  0.87167110  0.61607280  0.81231054    -1.13300
O2217       O  0.83699530  0.63460891  0.86261389    -0.72500
C2218       C  0.81260871  0.62125672  0.85253681     0.98200
C2219       C  0.87341741  0.60672905  0.74103661     0.94600
Al2220     Al  0.89994392  0.58984565  0.79973987     1.55600
O2221       O  0.83353572  0.66227115  0.79417345    -0.77100
C2222       C  0.91016551  0.58596275  0.86509383     0.98800
C2223       C  0.84651682  0.55418328  0.79654892     0.93700
O2224       O  0.83171401  0.57574297  0.78429130    -0.82400
C2225       C  0.85519471  0.77419876  0.78139770    -0.05600
C2226       C  0.85936319  0.76579238  0.81192672    -0.33000
C2227       C  0.85643904  0.73598391  0.82076815     0.36300
C2228       C  0.84881946  0.71371756  0.79907318    -0.05900
C2229       C  0.84324042  0.72222757  0.76885438    -0.32900
C2230       C  0.84648539  0.75200611  0.75991284     0.36200
H2231       H  0.86587008  0.78225073  0.82891931     0.16500
O2232       O  0.86189915  0.72877361  0.85066129    -0.60400
H2233       H  0.83770835  0.70554974  0.75175472     0.16600
O2234       O  0.84171354  0.75897503  0.72986097    -0.60500
H2235       H  0.81878857  0.76288485  0.72817623     0.43600
H2236       H  0.84075936  0.72818216  0.86036942     0.43500
C2237       C  0.83824778  0.96047919  0.78251596    -0.05600
C2238       C  0.82853473  0.97861228  0.75833874    -0.33000
C2239       C  0.82497568  0.51004954  0.76732491     0.36300
C2240       C  0.83538698  0.52295916  0.79492386    -0.05900
C2241       C  0.84331632  0.50419530  0.81924868    -0.32900
C2242       C  0.84152476  0.97308273  0.81175170     0.36200
H2243       H  0.82591315  0.96919708  0.73568239     0.16500
O2244       O  0.81667747  0.52753614  0.74321827    -0.60400
H2245       H  0.85125549  0.51360882  0.84073461     0.16600
O2246       O  0.85116083  0.95603784  0.83581859    -0.60500
H2247       H  0.83196003  0.94538525  0.84273406     0.43600
H2248       H  0.79330348  0.52715541  0.74289550     0.43500
C2249       C  0.02989578  0.65756152  0.77364496    -0.05600
C2250       C  0.00444209  0.65765291  0.75348501    -0.33000
C2251       C  0.97348516  0.65713306  0.76478968     0.36300
C2252       C  0.96770113  0.65485942  0.79659048    -0.05900
C2253       C  0.99292620  0.65969111  0.81660297    -0.32900
C2254       C  0.02383615  0.66202541  0.80507211     0.36200
H2255       H  0.00844034  0.65508930  0.72918125     0.16500
O2256       O  0.94908917  0.65537959  0.74441859    -0.60400
H2257       H  0.98915047  0.65908363  0.84104914     0.16600
O2258       O  0.04836287  0.66627651  0.82488574    -0.60500
H2259       H  0.05309369  0.68782127  0.82403762     0.43600
H2260       H  0.93802864  0.67468459  0.74617688     0.43500
C2261       C  0.02744275  0.84214615  0.81008293    -0.05600
C2262       C  0.03230792  0.84175238  0.77822576    -0.33000
C2263       C  0.00670103  0.84106029  0.75751874     0.36300
C2264       C  0.97539957  0.83934127  0.76832201    -0.05900
C2265       C  0.97097689  0.83535875  0.80000189    -0.32900
C2266       C  0.99654293  0.83714466  0.82076425     0.36200
H2267       H  0.05593642  0.84463961  0.76930587     0.16500
O2268       O  0.01242205  0.84482871  0.72698292    -0.60400
H2269       H  0.94724633  0.83366406  0.80902833     0.16600
O2270       O  0.99066916  0.83627011  0.85151161    -0.60500
H2271       H  0.99371162  0.81523166  0.85729521     0.43600
H2272       H  0.01843601  0.82489813  0.71926765     0.43500
C2273       C  0.14161615  0.78487342  0.78922797    -0.05600
C2274       C  0.15854840  0.76535948  0.80814391    -0.33000
C2275       C  0.16036806  0.73485930  0.80171054     0.36300
C2276       C  0.14466582  0.72293066  0.77615203    -0.05900
C2277       C  0.12868870  0.74272671  0.75657649    -0.32900
C2278       C  0.12710210  0.77329969  0.76291461     0.36200
H2279       H  0.17013071  0.77374319  0.82846977     0.16500
O2280       O  0.17678624  0.71691485  0.82116636    -0.60400
H2281       H  0.11661989  0.73445150  0.73648510     0.16600
O2282       O  0.11030841  0.79136179  0.74383450    -0.60500
H2283       H  0.08866131  0.79187688  0.75245256     0.43600
H2284       H  0.19851936  0.71624398  0.81277750     0.43500
C2285       C  0.15354565  0.97159596  0.79758153    -0.05600
C2286       C  0.15683959  0.98057893  0.76707930    -0.33000
C2287       C  0.16610705  0.50994788  0.75941735     0.36300
C2288       C  0.16451914  0.53238151  0.78185721    -0.05900
C2289       C  0.16246505  0.52423932  0.81263379    -0.32900
C2290       C  0.15653978  0.99283303  0.82100283     0.36200
H2291       H  0.15411861  0.96449743  0.74877482     0.16500
O2292       O  0.16809851  0.51714933  0.72910927    -0.60400
H2293       H  0.16075474  0.54119295  0.83002575     0.16600
O2294       O  0.15265687  0.98480970  0.85094003    -0.60500
H2295       H  0.17408958  0.98548955  0.85991940     0.43600
H2296       H  0.19074573  0.52139724  0.72543015     0.43500
C2297       C  0.28415254  0.61923201  0.70983687    -0.05600
C2298       C  0.27235582  0.64830620  0.70802345    -0.33000
C2299       C  0.23976272  0.65369934  0.70820994     0.36300
C2300       C  0.21843721  0.62975340  0.70971124    -0.05900
C2301       C  0.23029123  0.60064558  0.70811961    -0.32900
C2302       C  0.26288981  0.59528221  0.70880352     0.36200
H2303       H  0.28841253  0.66698326  0.71008977     0.16500
O2304       O  0.22929395  0.68228306  0.71193479    -0.60400
H2305       H  0.21425856  0.58199618  0.71042236     0.16600
O2306       O  0.27357077  0.56674188  0.71191041    -0.60500
H2307       H  0.27149963  0.56224595  0.73396386     0.43600
H2308       H  0.21898857  0.68738532  0.69237603     0.43500
C2309       C  0.28013477  0.88330984  0.85730248    -0.05600
C2310       C  0.26763986  0.85439593  0.85843911    -0.33000
C2311       C  0.23490153  0.84946434  0.85744760     0.36300
C2312       C  0.21403519  0.87364154  0.85599575    -0.05900
C2313       C  0.22641630  0.90259584  0.85721935    -0.32900
C2314       C  0.25918588  0.90752131  0.85779585     0.36200
H2315       H  0.28335701  0.83550597  0.85688171     0.16500
O2316       O  0.22366963  0.82095085  0.85515072    -0.60400
H2317       H  0.21072773  0.92142506  0.85509517     0.16600
O2318       O  0.27046651  0.93594600  0.85510083    -0.60500
H2319       H  0.27661663  0.94193935  0.87606951     0.43600
H2320       H  0.22325680  0.81645933  0.83296410     0.43500
C2321       C  0.32303166  0.72150257  0.77524271    -0.05600
C2322       C  0.32250042  0.74406342  0.75311679    -0.33000
C2323       C  0.32318882  0.77420057  0.76148774     0.36300
C2324       C  0.32518584  0.78245291  0.79250245    -0.05900
C2325       C  0.32139672  0.76012923  0.81461999    -0.32900
C2326       C  0.31936410  0.72991576  0.80615027     0.36200
H2327       H  0.32479230  0.73834226  0.72915805     0.16500
O2328       O  0.32669811  0.79505188  0.73906434    -0.60400
H2329       H  0.32250748  0.76591762  0.83862595     0.16600
O2330       O  0.31837909  0.70885435  0.82859351    -0.60500
H2331       H  0.29629027  0.70156837  0.82872934     0.43600
H2332       H  0.30503423  0.80207165  0.73474644     0.43500
C2333       C  0.35642397  0.97111967  0.78873185    -0.05600
C2334       C  0.36307026  0.97992815  0.75876496    -0.33000
C2335       C  0.37049941  0.51095771  0.75583942     0.36300
C2336       C  0.36349742  0.53345964  0.77779990    -0.05900
C2337       C  0.35466066  0.52423587  0.80716939    -0.32900
C2338       C  0.35054082  0.99380705  0.81073583     0.36200
H2339       H  0.36801112  0.96329016  0.74146849     0.16500
O2340       O  0.38009918  0.51816928  0.72690135    -0.60400
H2341       H  0.34890068  0.54065449  0.82444253     0.16600
O2342       O  0.34330442  0.98676641  0.84035557    -0.60500
H2343       H  0.36339218  0.98891159  0.85172051     0.43600
H2344       H  0.36074345  0.51716436  0.71426704     0.43500
C2345       C  0.52770122  0.62065134  0.80119618    -0.05600
C2346       C  0.51675526  0.59453017  0.78671269    -0.33000
C2347       C  0.48892714  0.59469053  0.76860132     0.36300
C2348       C  0.47218945  0.62143846  0.76381371    -0.05900
C2349       C  0.48266394  0.64692667  0.77950862    -0.32900
C2350       C  0.50945891  0.64665989  0.79802937     0.36200
H2351       H  0.53042897  0.57433573  0.78832981     0.16500
O2352       O  0.47919026  0.56891731  0.75475216    -0.60400
H2353       H  0.46986732  0.66761490  0.77769497     0.16600
O2354       O  0.51790812  0.67238854  0.81292509    -0.60500
H2355       H  0.52660717  0.68561565  0.79693603     0.43600
H2356       H  0.46453747  0.55955681  0.76954105     0.43500
C2357       C  0.78378568  0.61553134  0.87092359    -0.05600
C2358       C  0.76514986  0.63961844  0.88016408    -0.33000
C2359       C  0.73208239  0.63679513  0.88139181     0.36300
C2360       C  0.71737494  0.60969796  0.87321965    -0.05900
C2361       C  0.73633424  0.58447629  0.86981202    -0.32900
C2362       C  0.76934649  0.58726259  0.86838898     0.36200
H2363       H  0.77562281  0.66150424  0.88219751     0.16500
O2364       O  0.71411355  0.66165255  0.88633334    -0.60400
H2365       H  0.72563904  0.56346622  0.86343804     0.16600
O2366       O  0.78709556  0.56290284  0.86057537    -0.60500
H2367       H  0.78331717  0.55954450  0.83848331     0.43600
H2368       H  0.71215645  0.67122412  0.86611211     0.43500
C2369       C  0.53173023  0.89392120  0.77802025    -0.05600
C2370       C  0.52838905  0.89714897  0.80993315    -0.33000
C2371       C  0.49865889  0.89889569  0.82411730     0.36300
C2372       C  0.47094479  0.89786596  0.80661804    -0.05900
C2373       C  0.47414153  0.89769288  0.77448984    -0.32900
C2374       C  0.50412616  0.89537762  0.76016319     0.36200
H2375       H  0.54910256  0.89619211  0.82428973     0.16500
O2376       O  0.49705826  0.89948212  0.85533346    -0.60400
H2377       H  0.45314083  0.89672800  0.76048374     0.16600
O2378       O  0.50569410  0.89107137  0.72919954    -0.60500
H2379       H  0.51304868  0.91028106  0.72081226     0.43600
H2380       H  0.49400855  0.92066016  0.86082928     0.43500
C2381       C  0.78778797  0.86182946  0.70848812    -0.05600
C2382       C  0.77650341  0.89087679  0.70426397    -0.33000
C2383       C  0.74384165  0.89682367  0.70363995     0.36300
C2384       C  0.72190120  0.87352807  0.70711020    -0.05900
C2385       C  0.73343688  0.84418610  0.70710678    -0.32900
C2386       C  0.76593057  0.83829477  0.70838406     0.36200
H2387       H  0.79290672  0.90935920  0.70505906     0.16500
O2388       O  0.73386597  0.92572111  0.70455501    -0.60400
H2389       H  0.71714784  0.82593556  0.71070287     0.16600
O2390       O  0.77578122  0.80985995  0.71391293    -0.60500
H2391       H  0.78108073  0.80150095  0.69356914     0.43600
H2392       H  0.72749483  0.93026236  0.68333814     0.43500
C2393       C  0.68184596  0.77985964  0.78388906    -0.05600
C2394       C  0.68969745  0.76962902  0.81305167    -0.33000
C2395       C  0.69023482  0.73902948  0.81918485     0.36300
C2396       C  0.68419699  0.71824419  0.79565640    -0.05900
C2397       C  0.68172950  0.72853457  0.76561603    -0.32900
C2398       C  0.68054027  0.75910105  0.75967782     0.36200
H2399       H  0.69239817  0.78519985  0.83166705     0.16500
O2400       O  0.69363620  0.72976738  0.84873830    -0.60400
H2401       H  0.67721027  0.71301308  0.74713959     0.16600
O2402       O  0.67517011  0.76846026  0.73044891    -0.60500
H2403       H  0.69640713  0.77079894  0.72125023     0.43600
H2404       H  0.71629085  0.72477209  0.85073493     0.43500
C2405       C  0.64676924  0.96800802  0.77774968    -0.05600
C2406       C  0.67475400  0.98361356  0.78446006    -0.33000
C2407       C  0.67752326  0.51408831  0.79186079     0.36300
C2408       C  0.64887182  0.53009202  0.79182842    -0.05900
C2409       C  0.62112848  0.51482089  0.78401095    -0.32900
C2410       C  0.61803234  0.98386013  0.77812520     0.36200
H2411       H  0.69709535  0.97201297  0.78436529     0.16500
O2412       O  0.70522875  0.52806655  0.79941070    -0.60400
H2413       H  0.59881020  0.52648708  0.78387818     0.16600
O2414       O  0.58991530  0.96957422  0.77288917    -0.60500
H2415       H  0.58464101  0.97386724  0.75132433     0.43600
H2416       H  0.70969013  0.52203063  0.82069228     0.43500
C2417       C  0.10718609  0.60109512  0.86093834    -0.05600
C2418       C  0.07524224  0.60643062  0.86556909    -0.33000
C2419       C  0.05613636  0.58602729  0.88067820     0.36300
C2420       C  0.06944353  0.56005391  0.89378575    -0.05900
C2421       C  0.10270354  0.55776069  0.89357590    -0.32900
C2422       C  0.12142954  0.57811547  0.87736754     0.36200
H2423       H  0.06387911  0.62382135  0.85301201     0.16500
O2424       O  0.02434028  0.59105524  0.87979931    -0.60400
H2425       H  0.11446140  0.53942461  0.90443654     0.16600
O2426       O  0.15326603  0.57350139  0.87493169    -0.60500
H2427       H  0.16230097  0.58138293  0.89419853     0.43600
H2428       H  0.01717098  0.58275420  0.85996229     0.43500
C2429       C  0.06224203  0.95106202  0.96048837    -0.05600
C2430       C  0.09279587  0.95800589  0.95054350    -0.33000
C2431       C  0.10801824  0.93910836  0.92970411     0.36300
C2432       C  0.09419665  0.91146752  0.92233802    -0.05900
C2433       C  0.07084145  0.90059288  0.94214588    -0.32900
C2434       C  0.05638397  0.92022195  0.96312725     0.36200
H2435       H  0.10348543  0.97884474  0.95691498     0.16500
O2436       O  0.13455095  0.94880969  0.91480796    -0.60400
H2437       H  0.06160442  0.87831366  0.93930770     0.16600
O2438       O  0.03301203  0.90996317  0.98206262    -0.60500
H2439       H  0.04096516  0.91338737  0.00305093     0.43600
H2440       H  0.15243174  0.94020545  0.92626497     0.43500
C2441       C  0.95034085  0.91045053  0.90237293    -0.05600
C2442       C  0.96821308  0.90577910  0.87607991    -0.33000
C2443       C  0.95404242  0.89677805  0.84921423     0.36300
C2444       C  0.92148325  0.88960495  0.84857019    -0.05900
C2445       C  0.90412443  0.89117696  0.87591403    -0.32900
C2446       C  0.91827067  0.90230658  0.90262960     0.36200
H2447       H  0.99268556  0.91273134  0.87524041     0.16500
O2448       O  0.97195239  0.89795387  0.82319737    -0.60400
H2449       H  0.87915294  0.88605029  0.87606447     0.16600
O2450       O  0.90047460  0.90632659  0.92847860    -0.60500
H2451       H  0.88864503  0.92497969  0.92513147     0.43600
H2452       H  0.97081036  0.91893838  0.81655709     0.43500
C2453       C  0.95323559  0.52489747  0.92835753    -0.05600
C2454       C  0.94384878  0.55313211  0.93901548    -0.33000
C2455       C  0.92825885  0.57326519  0.91938007     0.36300
C2456       C  0.92185290  0.56519472  0.88876862    -0.05900
C2457       C  0.92889978  0.53649032  0.87911475    -0.32900
C2458       C  0.94452834  0.51668142  0.89793637     0.36200
H2459       H  0.95102930  0.56061779  0.96145618     0.16500
O2460       O  0.92223845  0.60155940  0.92940298    -0.60400
H2461       H  0.92411408  0.52977235  0.85576290     0.16600
O2462       O  0.95612126  0.49129941  0.88442881    -0.60500
H2463       H  0.94864018  0.98193102  0.87008015     0.43600
H2464       H  0.90178693  0.60023193  0.94032712     0.43500
C2465       C  0.59626207  0.83861399  0.91953470    -0.05600
C2466       C  0.62622897  0.82867253  0.91029119    -0.33000
C2467       C  0.63889278  0.83778678  0.88254168     0.36300
C2468       C  0.62322082  0.85923328  0.86539183    -0.05900
C2469       C  0.59787613  0.87458316  0.87820392    -0.32900
C2470       C  0.58426988  0.86459017  0.90547336     0.36200
H2471       H  0.63776552  0.81075810  0.92219768     0.16500
O2472       O  0.66449462  0.82322076  0.87071243    -0.60400
H2473       H  0.58688375  0.89250640  0.86580508     0.16600
O2474       O  0.55930651  0.88000012  0.91755809    -0.60500
H2475       H  0.54246533  0.87939117  0.90189409     0.43600
H2476       H  0.65598268  0.80388823  0.86355336     0.43500
C2477       C  0.45740673  0.71055959  0.86862186    -0.05600
C2478       C  0.43296641  0.72448888  0.85275448    -0.33000
C2479       C  0.41178179  0.70817176  0.83539609     0.36300
C2480       C  0.41483636  0.67717079  0.83297291    -0.05900
C2481       C  0.43787804  0.66262531  0.84997018    -0.32900
C2482       C  0.45905838  0.67907511  0.86804699     0.36200
H2483       H  0.43085143  0.74841415  0.85261078     0.16500
O2484       O  0.38880900  0.72291145  0.81954900    -0.60400
H2485       H  0.44059944  0.63878702  0.84793599     0.16600
O2486       O  0.48064481  0.66410786  0.88532078    -0.60500
H2487       H  0.49582387  0.65540573  0.87054042     0.43600
H2488       H  0.39976912  0.73258278  0.80220367     0.43500
C2489       C  0.47234121  0.81074473  0.93561875    -0.05600
C2490       C  0.44054251  0.80732833  0.94490459    -0.33000
C2491       C  0.41607303  0.82237783  0.92970511     0.36300
C2492       C  0.42338872  0.84326360  0.90703688    -0.05900
C2493       C  0.45487545  0.84890418  0.90013798    -0.32900
C2494       C  0.47872576  0.83138297  0.91197400     0.36200
H2495       H  0.43412348  0.79036002  0.96114314     0.16500
O2496       O  0.38525826  0.81545917  0.93606066    -0.60400
H2497       H  0.46069556  0.86373448  0.88166508     0.16600
O2498       O  0.50702625  0.83152537  0.89674106    -0.60500
H2499       H  0.50378410  0.81906892  0.87826083     0.43600
H2500       H  0.37993210  0.79883880  0.92203219     0.43500
C2501       C  0.56203935  0.71425740  0.94210699    -0.05600
C2502       C  0.54802488  0.68609426  0.93762787    -0.33000
C2503       C  0.56342086  0.66426473  0.92010052     0.36300
C2504       C  0.59369178  0.67006066  0.90838114    -0.05900
C2505       C  0.61031422  0.69473232  0.91969868    -0.32900
C2506       C  0.59507523  0.71581464  0.93828509     0.36200
H2507       H  0.52330135  0.68286265  0.94300947     0.16500
O2508       O  0.54684631  0.63976137  0.91054312    -0.60400
H2509       H  0.63464116  0.69832213  0.91302691     0.16600
O2510       O  0.61276809  0.73686263  0.95302276    -0.60500
H2511       H  0.61671731  0.72862867  0.97359286     0.43600
H2512       H  0.55261792  0.62386678  0.92502996     0.43500
C2513       C  0.01855193  0.55561104  0.64686444    -0.05600
C2514       C  0.05033938  0.55585615  0.63690354    -0.33000
C2515       C  0.07366859  0.57157562  0.65339158     0.36300
C2516       C  0.06510829  0.58760098  0.67974633    -0.05900
C2517       C  0.03331014  0.58985621  0.68760815    -0.32900
C2518       C  0.01043865  0.57329203  0.67260495     0.36200
H2519       H  0.05784560  0.54149251  0.61845113     0.16500
O2520       O  0.10479824  0.56834877  0.64560109    -0.60400
H2521       H  0.02646640  0.60192011  0.70807515     0.16600
O2522       O  0.98155026  0.57044749  0.68664624    -0.60500
H2523       H  0.97311743  0.59085482  0.68915352     0.43600
H2524       H  0.11012590  0.58636304  0.63374074     0.43500
C2525       C  0.02733781  0.94728945  0.70019563    -0.05600
C2526       C  0.01247135  0.93230044  0.72390713    -0.33000
C2527       C  0.02974821  0.91496119  0.74377027     0.36300
C2528       C  0.06245979  0.91063619  0.73901296    -0.05900
C2529       C  0.07681771  0.92330905  0.71325921    -0.32900
C2530       C  0.05950848  0.94214798  0.69414504     0.36200
H2531       H  0.98768903  0.93609592  0.72858650     0.16500
O2532       O  0.01485555  0.90465803  0.76939011    -0.60400
H2533       H  0.10193123  0.92079046  0.70948423     0.16600
O2534       O  0.07408039  0.95548718  0.66982855    -0.60500
H2535       H  0.08733796  0.97146126  0.67879690     0.43600
H2536       H  0.01376201  0.92200633  0.78338028     0.43500
C2537       C  0.87382603  0.60264009  0.70780237    -0.05600
C2538       C  0.85929105  0.57732830  0.69597614    -0.33000
C2539       C  0.86769827  0.56620978  0.66729552     0.36300
C2540       C  0.89215195  0.58019397  0.65045385    -0.05900
C2541       C  0.90106885  0.60917786  0.65970348    -0.32900
C2542       C  0.89233661  0.62025628  0.68848233     0.36200
H2543       H  0.84308990  0.56483504  0.70999934     0.16500
O2544       O  0.85316042  0.54081551  0.65710920    -0.60400
H2545       H  0.91771851  0.62185406  0.64627220     0.16600
O2546       O  0.90456422  0.64672375  0.69851108    -0.60500
H2547       H  0.88689950  0.66104326  0.69728269     0.43600
H2548       H  0.85907185  0.52504969  0.67173167     0.43500
C2549       C  0.92735444  0.96304696  0.62649665    -0.05600
C2550       C  0.90040341  0.96673609  0.64504599    -0.33000
C2551       C  0.88875841  0.94392722  0.66329147     0.36300
C2552       C  0.90437900  0.91650763  0.66420840    -0.05900
C2553       C  0.92674791  0.91033433  0.64134219    -0.32900
C2554       C  0.93795323  0.93333377  0.62211607     0.36200
H2555       H  0.89106393  0.98826802  0.65004376     0.16500
O2556       O  0.86409725  0.94975428  0.68282966    -0.60400
H2557       H  0.93842113  0.88898465  0.64086628     0.16600
O2558       O  0.96270610  0.92745568  0.60282245    -0.60500
H2559       H  0.98160723  0.92608025  0.61602307     0.43600
H2560       H  0.87271078  0.96327599  0.69873357     0.43500
C2561       C  0.60460443  0.64311010  0.72417789    -0.05600
C2562       C  0.57229010  0.64897455  0.72648642    -0.33000
C2563       C  0.55487881  0.65684760  0.70098548     0.36300
C2564       C  0.56979225  0.65869349  0.67225218    -0.05900
C2565       C  0.60155725  0.65004336  0.66948362    -0.32900
C2566       C  0.61896563  0.64190739  0.69530894     0.36200
H2567       H  0.56088061  0.64962740  0.74859165     0.16500
O2568       O  0.52417135  0.66554330  0.70507173    -0.60400
H2569       H  0.61331468  0.65157686  0.64757892     0.16600
O2570       O  0.65049630  0.63583970  0.69247717    -0.60500
H2571       H  0.65165605  0.61402323  0.68958274     0.43600
H2572       H  0.52527279  0.68685602  0.71080989     0.43500
C2573       C  0.41928239  0.83796532  0.73232692    -0.05600
C2574       C  0.45140155  0.83352211  0.73826665    -0.33000
C2575       C  0.46950497  0.81516757  0.71985066     0.36300
C2576       C  0.45552114  0.80057295  0.69492640    -0.05900
C2577       C  0.42391365  0.80664147  0.68745470    -0.32900
C2578       C  0.40576532  0.82552570  0.70595475     0.36200
H2579       H  0.46178676  0.84171760  0.75921011     0.16500
O2580       O  0.50006934  0.80948473  0.72814082    -0.60400
H2581       H  0.41302848  0.79577762  0.66803224     0.16600
O2582       O  0.37422550  0.82878569  0.70009242    -0.60500
H2583       H  0.37244244  0.84809890  0.68950940     0.43600
H2584       H  0.49901743  0.79132283  0.74079616     0.43500
C2585       C  0.56499814  0.77156043  0.64067983    -0.05600
C2586       C  0.57867799  0.76244585  0.66852979    -0.33000
C2587       C  0.59340467  0.78209052  0.68854854     0.36300
C2588       C  0.59395446  0.81252122  0.68223619    -0.05900
C2589       C  0.58326366  0.82205339  0.65348934    -0.32900
C2590       C  0.56880611  0.80188147  0.63277416     0.36200
H2591       H  0.57374871  0.74083695  0.67787672     0.16500
O2592       O  0.60391087  0.77168189  0.71612877    -0.60400
H2593       H  0.58360438  0.84549593  0.64814654     0.16600
O2594       O  0.55474168  0.81292388  0.60716164    -0.60500
H2595       H  0.57210344  0.81537364  0.59218511     0.43600
H2596       H  0.61949320  0.75598459  0.71120782     0.43500
C2597       C  0.40811788  0.66606186  0.65110077    -0.05600
C2598       C  0.43226042  0.65099403  0.63551900    -0.33000
C2599       C  0.45458901  0.66715664  0.61882176     0.36300
C2600       C  0.45411514  0.69845705  0.62040068    -0.05900
C2601       C  0.42466061  0.71154139  0.62608603    -0.32900
C2602       C  0.40201692  0.69579785  0.64294438     0.36200
H2603       H  0.43567766  0.62738805  0.63863358     0.16500
O2604       O  0.47735462  0.65231246  0.60262032    -0.60400
H2605       H  0.42131291  0.73505803  0.62230364     0.16600
O2606       O  0.37576006  0.71028985  0.65369306    -0.60500
H2607       H  0.38329027  0.72322546  0.67058037     0.43600
H2608       H  0.47132538  0.65454483  0.58090875     0.43500
loop_ 
_geom_bond_atom_site_label_1 
_geom_bond_atom_site_label_2 
_geom_bond_distance 
_geom_bond_site_symmetry_2 
_ccdc_geom_bond_type 
C1            C3   1.531       .  S
C1            C5   1.544       .  S
C1            C4   1.543       .  S
C1          C629   1.554       .  S
C2            C6   1.541       .  S
C2            C8   1.548       .  S
C2            C7   1.533       .  S
C2          C644   1.544       .  S
C3           C11   1.373       .  A
C3            C6   1.393       .  A
C4           C15   1.385       .  A
C4            C7   1.423       .  A
C5           C19   1.375       .  A
C5            C8   1.407       .  A
C6            C9   1.393       .  A
C7           C13   1.369       .  A
C8           C16   1.383       .  A
C9           N10   1.351       .  A
C9           H22   1.077       .  S
N10          C11   1.341       .  A
N10         C620   1.435       .  S
C11          H12   1.081       .  S
C13          N14   1.342       .  A
C13          H23   1.083       .  S
N14          C15   1.350       .  A
N14          N60   1.396       .  S
C15          H21   1.082       .  S
C16          N17   1.349       .  A
C16          H18   1.078       .  S
N17          C19   1.349       .  A
N17         C608   1.437       .  S
C19          H20   1.081       .  S
C24          C26   1.537       .  S
C24          C27   1.551       .  S
C24         C593   1.546       .  S
C24        C1332   1.549       .  S
C25          C31   1.539       .  S
C25          C30   1.549       .  S
C25         C557   1.535   1_655  S
C25        C1333   1.523       .  S
C26          C34   1.383       .  A
C26          C29   1.384       .  A
C27          C38   1.383       .  A
C27        C1334   1.435   1_655  A
C28        C1328   1.549   1_545  S
C28          C42   1.383       .  A
C28          C31   1.381       .  A
C29        C1329   1.521       .  S
C29          C32   1.383   1_655  A
C30          C36   1.380   1_655  A
C30        C1331   1.433   1_545  A
C31          C39   1.377       .  A
C32          N33   1.348       .  A
C32          H45   1.082       .  S
N33          C34   1.347   1_455  A
N33         C569   1.431       .  S
C34          H35   1.078       .  S
C36          N37   1.350   1_455  A
C36          H46   1.082       .  S
N37        C1342   1.352   1_545  A
N37        N1387   1.404       .  S
C38        N1341   1.350       .  A
C38          H44   1.082       .  S
C39          N40   1.360       .  A
C39          H41   1.080       .  S
N40          C42   1.362       .  A
N40         C584   1.458       .  S
C42          H43   1.078       .  S
C47          C49   1.534       .  S
C47          C51   1.524       .  S
C47         C533   1.540       .  S
C47         C702   1.533       .  S
C48          C52   1.552       .  S
C48          C54   1.541       .  S
C48         C545   1.545       .  S
C48         C705   1.553       .  S
C49          C57   1.368       .  A
C49          C52   1.389       .  A
C50         C699   1.528       .  S
C50          C61   1.373   1_556  A
C50          C53   1.427       .  A
C51          C65   1.374       .  A
C51          C54   1.386       .  A
C52          C55   1.382       .  A
C53         C700   1.553       .  S
C53          C59   1.380   1_556  A
C54          C62   1.392       .  A
C55          N56   1.365       .  A
C55          H68   1.076       .  S
N56          C57   1.355       .  A
N56         C509   1.451       .  S
C57          H58   1.075       .  S
C59          N60   1.350       .  A
C59          H69   1.082       .  S
N60          C61   1.344       .  A
C61          H67   1.082       .  S
C62          N63   1.352       .  A
C62          H64   1.076       .  S
N63          C65   1.348       .  A
N63         C521   1.440       .  S
C65          H66   1.082       .  S
C70          C72   1.551   1_455  S
C70         C473   1.556       .  S
C70        C1378   1.552       .  S
C70         C725   1.545       .  S
C71          C77   1.529   1_655  S
C71         C497   1.553       .  S
C71        C1379   1.531   1_545  S
C71         C728   1.549       .  S
C72          C80   1.382       .  A
C72          C75   1.384       .  A
C73         C722   1.548       .  S
C73          C84   1.371   1_556  A
C73        C1380   1.432   1_455  A
C74        C1374   1.551       .  S
C74          C88   1.402   1_565  A
C74          C77   1.392   1_565  A
C75        C1375   1.523       .  S
C75          C78   1.372       .  A
C76         C723   1.558       .  S
C76          C82   1.390   1_556  A
C76        C1377   1.429   1_645  A
C77          C85   1.373       .  A
C78          N79   1.350       .  A
C78          H91   1.082       .  S
N79          C80   1.356       .  A
N79         C485   1.429       .  S
C80          H81   1.081   1_655  S
C82        N1387   1.360       .  A
C82          H92   1.082       .  S
N83          C84   1.347       .  A
N83        C1386   1.357   1_455  A
N83        N1341   1.402   1_455  S
C84          H90   1.082       .  S
C85          N86   1.340       .  A
C85          H87   1.081   1_455  S
N86          C88   1.355       .  A
N86         C464   1.445       .  S
C88          H89   1.076   1_545  S
O93         C108   1.253       .  A
O93        Al101   1.841       .  S
C94         O104   1.260       .  A
C94          O95   1.284       .  A
C94         C413   1.502       .  S
O95         Al97   2.006       .  S
O96          C98   1.254       .  A
O96         Al97   1.881       .  S
Al97        O105   1.916       .  S
Al97        O107   1.989       .  S
Al97        O106   1.788       .  S
C98         O111   1.267       .  A
C98         C449   1.498       .  S
O99         C109   1.253       .  A
O99        Al101   1.883       .  S
O100        C113   1.260       .  A
O100       Al110   1.890       .  S
Al101       O114   1.983       .  S
Al101       O111   1.950       .  S
Al101       O106   1.786       .  S
O102        C109   1.264       .  A
O102       Al110   1.927       .  S
O103        C112   1.259       .  A
O103       Al110   1.910       .  S
O104       Al110   1.865       .  S
O105        C112   1.255       .  A
O106       Al110   1.775       .  S
O107        C108   1.279       .  A
C108        C428   1.481       .  S
C109        C512   1.455       .  S
C112        C632   1.489       .  S
C113        O114   1.276       .  A
C113        C437   1.486       .  S
O115        C130   1.271       .  A
O115       Al123   1.912       .  S
C116        O126   1.262       .  A
C116        O117   1.281       .  A
C116        C389   1.525       .  S
O117       Al119   2.003       .  S
O118        C120   1.250       .  A
O118       Al119   1.896       .  S
Al119       O127   1.941       .  S
Al119       O129   1.949       .  S
Al119       O128   1.784       .  S
C120        O133   1.259       .  A
C120        C452   1.492       .  S
O121        C131   1.264       .  A
O121       Al123   1.902       .  S
O122        C135   1.248       .  A
O122       Al132   1.862       .  S
Al123       O136   1.941       .  S
Al123       O133   1.933       .  S
Al123       O128   1.785       .  S
O124        C131   1.262       .  A
O124       Al132   1.872       .  S
O125        C134   1.259       .  A
O125       Al132   1.904       .  S
O126       Al132   1.909       .  S
O127        C134   1.264       .  A
O128       Al132   1.775       .  S
O129        C130   1.280       .  A
C130        C404   1.485       .  S
C131        C605   1.468       .  S
C134        C548   1.480       .  S
C135        O136   1.261       .  A
C135        C440   1.480       .  S
O137        C152   1.284       .  A
O137       Al145   1.932       .  S
C138        O148   1.283       .  A
C138        O139   1.285       .  A
C138        C416   1.495       .  S
O139       Al141   1.950       .  S
O140        C142   1.243       .  A
O140       Al141   1.884       .  S
Al141       O149   1.932       .  S
Al141       O151   1.948       .  S
Al141       O150   1.777       .  S
C142        O155   1.262       .  A
C142        C377   1.508       .  S
O143        C153   1.263       .  A
O143       Al145   1.921       .  S
O144        C157   1.257       .  A
O144       Al154   1.886       .  S
Al145       O158   1.953       .  S
Al145       O155   1.965       .  S
Al145       O150   1.771       .  S
O146        C153   1.253       .  A
O146       Al154   1.846       .  S
O147        C156   1.244       .  A
O147       Al154   1.908       .  S
O148       Al154   1.950       .  S
O149        C156   1.250       .  A
O150       Al154   1.758       .  S
O151        C152   1.292       .  A
C152        C353   1.484       .  S
C153        C617   1.460       .  S
C156        C536   1.479       .  S
C157        O158   1.269       .  A
C157        C368   1.493       .  S
O159        C174   1.281       .  A
O159       Al167   1.924       .  S
C160        O170   1.280       .  A
C160        O161   1.285       .  A
C160        C392   1.520       .  S
O161       Al163   1.974       .  S
O162        C164   1.243       .  A
O162       Al163   1.872       .  S
Al163       O171   1.944       .  S
Al163       O173   1.951       .  S
Al163       O172   1.780       .  S
C164        O177   1.261       .  A
C164        C380   1.509       .  S
O165        C175   1.266       .  A
O165       Al167   1.924       .  S
O166        C179   1.252       .  A
O166       Al176   1.874       .  S
Al167       O180   1.950       .  S
Al167       O177   1.962       .  S
Al167       O172   1.777       .  S
O168        C175   1.256       .  A
O168       Al176   1.849       .  S
O169        C178   1.243       .  A
O169       Al176   1.883       .  S
O170       Al176   1.945       .  S
O171        C178   1.254       .  A
O172       Al176   1.760       .  S
O173        C174   1.290       .  A
C174        C341   1.482       .  S
C175        C524   1.461       .  S
C178        C641   1.483       .  S
C179        O180   1.266       .  A
C179        C365   1.494       .  S
O181        C196   1.281       .  A
O181       Al189   1.942       .  S
C182        O192   1.279       .  A
C182        O183   1.277       .  A
C182        C305   1.510       .  S
O183       Al185   1.947       .  S
O184        C186   1.249       .  A
O184       Al185   1.898       .  S
Al185       O193   1.963       .  S
Al185       O195   1.941       .  S
Al185       O194   1.785       .  S
C186        O199   1.264       .  A
C186        C317   1.499       .  S
O187        C197   1.267       .  A
O187       Al189   1.938       .  S
O188        C201   1.257       .  A
O188       Al198   1.882       .  S
Al189       O202   1.910       .  S
Al189       O199   1.954       .  S
Al189       O194   1.773       .  S
O190        C197   1.248       .  A
O190       Al198   1.830       .  S
O191        C200   1.245       .  A
O191       Al198   1.881       .  S
O192       Al198   1.959       .  S
O193        C200   1.259       .  A
O194       Al198   1.765       .  S
O195        C196   1.285       .  A
C196        C356   1.486       .  S
C197        C572   1.474       .  S
C200        C476   1.486       .  S
C201        O202   1.261       .  A
C201        C329   1.472       .  S
O203        C218   1.262       .  A
O203       Al211   1.881       .  S
C204        O214   1.269       .  A
C204        O205   1.288       .  A
C204        C293   1.486       .  S
O205       Al207   1.990       .  S
O206        C208   1.250       .  A
O206       Al207   1.872       .  S
Al207       O215   1.935       .  S
Al207       O217   1.956       .  S
Al207       O216   1.787       .  S
C208        O221   1.264       .  A
C208        C320   1.506       .  S
O209        C219   1.261       .  A
O209       Al211   1.947       .  S
O210        C223   1.272       .  A
O210       Al220   1.896       .  S
Al211       O224   1.975       .  S
Al211       O221   1.945       .  S
Al211       O216   1.784       .  S
O212        C219   1.245       .  A
O212       Al220   1.869       .  S
O213        C222   1.241       .  A
O213       Al220   1.845       .  S
O214       Al220   1.877       .  S
O215        C222   1.250       .  A
O216       Al220   1.769       .  S
O217        C218   1.276       .  A
C218        C344   1.483       .  S
C219        C461   1.461       .  S
C222        C560   1.477       .  S
C223        O224   1.283       .  A
C223        C332   1.481       .  S
O225        C240   1.272       .  A
O225       Al233   1.921       .  S
C226        O236   1.267       .  A
C226        O227   1.275       .  A
C226        C308   1.511       .  S
O227       Al229   1.971       .  S
O228        C230   1.255       .  A
O228       Al229   1.910       .  S
Al229       O237   1.968       .  S
Al229       O239   1.940       .  S
Al229       O238   1.786       .  S
C230        O243   1.260       .  A
C230        C269   1.497       .  S
O231        C241   1.267       .  A
O231       Al233   1.930       .  S
O232        C245   1.255       .  A
O232       Al242   1.892       .  S
Al233       O246   1.915       .  S
Al233       O243   1.926       .  S
Al233       O238   1.783       .  S
O234        C241   1.253       .  A
O234       Al242   1.835       .  S
O235        C244   1.254       .  A
O235       Al242   1.868       .  S
O236       Al242   1.937       .  S
O237        C244   1.266       .  A
O238       Al242   1.775       .  S
O239        C240   1.277       .  A
C240        C425   1.484       .  S
C241        C488   1.475       .  S
C244        C596   1.489       .  S
C245        O246   1.258       .  A
C245        C281   1.474       .  S
O247        C262   1.252       .  A
O247       Al255   1.845       .  S
C248        O258   1.260       .  A
C248        O249   1.286       .  A
C248        C296   1.493       .  S
O249       Al251   2.007       .  S
O250        C252   1.255       .  A
O250       Al251   1.880       .  S
Al251       O259   1.924       .  S
Al251       O261   1.977       .  S
Al251       O260   1.789       .  S
C252        O265   1.267       .  A
C252        C272   1.496       .  S
O253        C263   1.252       .  A
O253       Al255   1.905       .  S
O254        C267   1.262       .  A
O254       Al264   1.869       .  S
Al255       O268   1.993       .  S
Al255       O265   1.945       .  S
Al255       O260   1.783       .  S
O256        C263   1.260       .  A
O256       Al264   1.923       .  S
O257        C266   1.259       .  A
O257       Al264   1.916       .  S
O258       Al264   1.852       .  S
O259        C266   1.254       .  A
O260       Al264   1.773       .  S
O261        C262   1.275       .  A
C262        C401   1.483       .  S
C263        C581   1.469       .  S
C266        C500   1.495       .  S
C267        O268   1.281       .  A
C267        C284   1.488       .  S
C269        C270   1.404       .  A
C269        C274   1.417       .  A
C270        C271   1.407       .  A
C270        H275   1.083       .  S
C271        C272   1.417       .  A
C271        O276   1.372       .  S
C272        C273   1.403       .  A
C273        C274   1.407       .  A
C273        H277   1.083       .  S
C274        O278   1.371       .  S
O276        H280   0.992       .  S
O278        H279   0.992       .  S
C281        C282   1.403       .  A
C281        C286   1.405       .  A
C282       C1587   1.407       .  A
C282        H287   1.084       .  S
C283        C284   1.411       .  A
C283       C1586   1.409   1_545  A
C283        O288   1.368       .  S
C284        C285   1.407       .  A
C285       C1590   1.398   1_545  A
C285        H289   1.084       .  S
C286       C1589   1.399       .  A
C286        O290   1.372       .  S
O288        H292   0.991       .  S
O290        H291   0.992       .  S
C293        C294   1.397       .  A
C293        C298   1.416       .  A
C294        C295   1.404   1_455  A
C294        H299   1.084       .  S
C295        C296   1.419       .  A
C295        O300   1.370       .  S
C296        C297   1.401       .  A
C297        C298   1.409   1_655  A
C297        H301   1.083       .  S
C298        O302   1.372       .  S
O300        H304   0.992       .  S
O302        H303   0.992       .  S
C305        C306   1.412       .  A
C305        C310   1.408   1_455  A
C306        C307   1.418       .  A
C306        H311   1.083       .  S
C307        C308   1.411   1_455  A
C307        O312   1.371       .  S
C308        C309   1.412       .  A
C309        C310   1.419       .  A
C309        H313   1.082       .  S
C310        O314   1.370       .  S
O312        H316   0.991       .  S
O314        H315   0.991       .  S
C317        C318   1.414       .  A
C317        C322   1.406       .  A
C318        C319   1.409       .  A
C318        H323   1.084       .  S
C319        C320   1.410       .  A
C319        O324   1.371       .  S
C320        C321   1.416       .  A
C321        C322   1.407       .  A
C321        H325   1.083       .  S
C322        O326   1.371       .  S
O324        H328   0.992       .  S
O326        H327   0.992       .  S
C329        C330   1.403       .  A
C329        C334   1.408       .  A
C330       C1635   1.401       .  A
C330        H335   1.084       .  S
C331        C332   1.409       .  A
C331       C1634   1.404   1_545  A
C331        O336   1.371       .  S
C332        C333   1.406       .  A
C333       C1638   1.401   1_545  A
C333        H337   1.084       .  S
C334       C1637   1.400       .  A
C334        O338   1.372       .  S
O336        H340   0.992       .  S
O338        H339   0.991       .  S
C341        C342   1.408       .  A
C341        C346   1.407       .  A
C342        C343   1.407       .  A
C342        H347   1.084       .  S
C343        C344   1.407       .  A
C343        O348   1.371       .  S
C344        C345   1.408       .  A
C345        C346   1.408       .  A
C345        H349   1.084       .  S
C346        O350   1.372       .  S
O348        H352   0.991       .  S
O350        H351   0.992       .  S
C353        C354   1.405       .  A
C353        C358   1.410       .  A
C354        C355   1.402       .  A
C354        H359   1.084       .  S
C355        C356   1.407       .  A
C355        O360   1.372       .  S
C356        C357   1.409       .  A
C357        C358   1.414       .  A
C357        H361   1.084       .  S
C358        O362   1.371       .  S
O360        H364   0.992       .  S
O362        H363   0.992       .  S
C365        C366   1.409       .  A
C365        C370   1.411       .  A
C366        C367   1.407       .  A
C366        H371   1.084       .  S
C367        C368   1.410       .  A
C367        O372   1.370       .  S
C368        C369   1.408       .  A
C369        C370   1.408       .  A
C369        H373   1.084       .  S
C370        O374   1.371       .  S
O372        H376   0.991       .  S
O374        H375   0.991       .  S
C377        C378   1.400       .  A
C377        C382   1.425       .  A
C378       C1683   1.408       .  A
C378        H383   1.083       .  S
C379        C380   1.424       .  A
C379       C1682   1.408   1_545  A
C379        O384   1.371       .  S
C380        C381   1.403       .  A
C381       C1686   1.412   1_545  A
C381        H385   1.083       .  S
C382       C1685   1.411       .  A
C382        O386   1.372       .  S
O384        H388   0.992       .  S
O386        H387   0.992       .  S
C389        C390   1.418       .  A
C389        C394   1.420       .  A
C390        C391   1.432       .  A
C390        H395   1.083       .  S
C391        C392   1.419       .  A
C391        O396   1.370       .  S
C392        C393   1.404       .  A
C393        C394   1.397       .  A
C393        H397   1.081       .  S
C394        O398   1.373       .  S
O396        H400   0.992       .  S
O398        H399   0.992       .  S
C401        C402   1.403       .  A
C401        C406   1.414       .  A
C402        C403   1.409       .  A
C402        H407   1.084       .  S
C403        C404   1.411       .  A
C403        O408   1.371       .  S
C404        C405   1.402       .  A
C405        C406   1.408       .  A
C405        H409   1.084       .  S
C406        O410   1.373       .  S
O408        H412   0.991       .  S
O410        H411   0.992       .  S
C413        C414   1.411       .  A
C413        C418   1.409       .  A
C414        C415   1.404       .  A
C414        H419   1.081       .  S
C415        C416   1.403       .  A
C415        O420   1.370       .  S
C416        C417   1.413       .  A
C417        C418   1.419       .  A
C417        H421   1.084       .  S
C418        O422   1.370       .  S
O420        H424   0.991       .  S
O422        H423   0.991       .  S
C425        C426   1.407       .  A
C425        C430   1.406       .  A
C426        C427   1.409       .  A
C426        H431   1.084       .  S
C427        C428   1.409       .  A
C427        O432   1.371       .  S
C428        C429   1.409       .  A
C429        C430   1.406       .  A
C429        H433   1.084       .  S
C430        O434   1.371       .  S
O432        H436   0.991       .  S
O434        H435   0.991       .  S
C437        C438   1.401       .  A
C437        C442   1.411       .  A
C438        C439   1.405       .  A
C438        H443   1.080       .  S
C439        C440   1.410       .  A
C439        O444   1.372       .  S
C440        C441   1.404       .  A
C441        C442   1.407       .  A
C441        H445   1.084       .  S
C442        O446   1.371       .  S
O444        H448   0.992       .  S
O446        H447   0.992       .  S
C449        C450   1.404       .  A
C449        C454   1.418       .  A
C450       C1755   1.409       .  A
C450        H455   1.083       .  S
C451        C452   1.407       .  A
C451       C1754   1.407   1_545  A
C451        O456   1.371       .  S
C452        C453   1.409       .  A
C453       C1758   1.407   1_545  A
C453        H457   1.084       .  S
C454       C1757   1.408       .  A
C454        O458   1.371       .  S
O456        H460   0.992       .  S
O458        H459   0.992       .  S
C461        C462   1.400       .  A
C461        C466   1.406       .  A
C462        C463   1.389       .  A
C462        H467   1.080       .  S
C463        C464   1.413       .  A
C463        O468   1.372       .  S
C464        C465   1.409       .  A
C465        C466   1.405       .  A
C465        H469   1.082       .  S
C466        O470   1.371       .  S
O468        H472   0.992       .  S
O470        H471   0.991       .  S
C473        C474   1.401       .  A
C473        C478   1.416       .  A
C474        C475   1.403       .  A
C474        H479   1.080       .  S
C475        C476   1.415       .  A
C475        O480   1.372       .  S
C476        C477   1.403       .  A
C477        C478   1.408       .  A
C477        H481   1.083       .  S
C478        O482   1.372       .  S
O480        H484   0.992       .  S
O482        H483   0.991       .  S
C485        C486   1.396       .  A
C485        C490   1.406       .  A
C486        C487   1.380       .  A
C486        H491   1.083       .  S
C487        C488   1.416       .  A
C487        O492   1.371       .  S
C488        C489   1.406       .  A
C489        C490   1.404       .  A
C489        H493   1.083       .  S
C490        O494   1.371       .  S
O492        H496   0.992       .  S
O494        H495   0.992       .  S
C497        C498   1.414       .  A
C497        C502   1.431       .  A
C498        C499   1.420       .  A
C498        H503   1.081       .  S
C499        C500   1.414       .  A
C499        O504   1.370       .  S
C500        C501   1.394       .  A
C501        C502   1.395       .  A
C501        H505   1.085       .  S
C502        O506   1.375   1_545  S
O504        H508   0.991       .  S
O506       H1811   0.993       .  S
H507       O1810   0.993       .  S
C509        C510   1.409       .  A
C509        C514   1.421       .  A
C510        C511   1.393       .  A
C510        H515   1.082       .  S
C511        C512   1.399       .  A
C511        O516   1.370       .  S
C512        C513   1.393       .  A
C513        C514   1.398       .  A
C513        H517   1.082       .  S
C514        O518   1.371       .  S
O516        H520   0.991       .  S
O518        H519   0.992       .  S
C521        C522   1.400       .  A
C521        C526   1.418       .  A
C522        C523   1.384       .  A
C522        H527   1.082       .  S
C523        C524   1.406       .  A
C523        O528   1.374       .  S
C524        C525   1.400       .  A
C525        C526   1.409       .  A
C525        H529   1.083       .  S
C526        O530   1.371       .  S
O528        H532   0.992       .  S
O530        H531   0.992       .  S
C533        C534   1.414       .  A
C533        C538   1.423       .  A
C534        C535   1.416       .  A
C534        H539   1.082       .  S
C535        C536   1.408       .  A
C535        O540   1.370       .  S
C536        C537   1.392       .  A
C537        C538   1.389       .  A
C537        H541   1.080       .  S
C538        O542   1.373       .  S
O540        H544   0.992       .  S
O542        H543   0.992       .  S
C545        C546   1.409       .  A
C545        C550   1.411       .  A
C546        C547   1.404       .  A
C546        H551   1.084       .  S
C547        C548   1.410       .  A
C547        O552   1.371       .  S
C548        C549   1.403       .  A
C549        C550   1.403       .  A
C549        H553   1.084       .  S
C550        O554   1.369       .  S
O552        H556   0.991       .  S
O554        H555   0.992       .  S
C557        C558   1.415       .  A
C557        C562   1.421       .  A
C558        C559   1.417       .  A
C558        H563   1.081       .  S
C559        C560   1.407       .  A
C559        O564   1.370       .  S
C560        C561   1.395       .  A
C561        C562   1.387       .  A
C561        H565   1.086       .  S
C562        O566   1.377   1_455  S
O564        H568   0.991       .  S
O566        H567   0.993       .  S
C569        C570   1.394       .  A
C569        C574   1.409       .  A
C570        C571   1.390       .  A
C570        H575   1.084   1_455  S
C571        C572   1.416       .  A
C571        O576   1.371       .  S
C572        C573   1.403       .  A
C573        C574   1.404       .  A
C573        H577   1.084       .  S
C574        O578   1.371       .  S
O576        H580   0.992       .  S
O578        H579   0.992       .  S
C581        C582   1.391       .  A
C581        C586   1.402       .  A
C582        C583   1.396       .  A
C582        H587   1.079       .  S
C583        C584   1.421       .  A
C583        O588   1.371       .  S
C584        C585   1.416       .  A
C585        C586   1.405       .  A
C585        H589   1.082       .  S
C586        O590   1.370       .  S
O588        H592   0.992       .  S
O590        H591   0.992       .  S
C593        C594   1.410       .  A
C593        C598   1.424       .  A
C594        C595   1.392       .  A
C594        H599   1.068       .  S
C595        C596   1.403       .  A
C595        O600   1.376       .  S
C596        C597   1.406       .  A
C597        C598   1.419       .  A
C597        H601   1.083       .  S
C598        O602   1.371       .  S
O600        H604   0.993       .  S
O602        H603   0.992       .  S
C605        C606   1.400       .  A
C605        C610   1.408       .  A
C606        C607   1.388       .  A
C606        H611   1.084       .  S
C607        C608   1.416       .  A
C607        O612   1.372       .  S
C608        C609   1.404       .  A
C609        C610   1.397       .  A
C609        H613   1.083       .  S
C610        O614   1.371       .  S
O612        H616   0.992       .  S
O614        H615   0.992       .  S
C617        C618   1.401       .  A
C617        C622   1.405       .  A
C618        C619   1.386       .  A
C618        H623   1.081       .  S
C619        C620   1.407       .  A
C619        O624   1.372       .  S
C620        C621   1.408       .  A
C621        C622   1.402       .  A
C621        H625   1.083       .  S
C622        O626   1.370       .  S
O624        H628   0.992       .  S
O626        H627   0.991       .  S
C629        C630   1.417       .  A
C629        C634   1.424       .  A
C630        C631   1.392       .  A
C630        H635   1.077       .  S
C631        C632   1.400       .  A
C631        O636   1.372       .  S
C632        C633   1.406       .  A
C633        C634   1.418       .  A
C633        H637   1.083       .  S
C634        O638   1.369       .  S
O636        H640   0.991       .  S
O638        H639   0.992       .  S
C641        C642   1.403       .  A
C641        C646   1.414       .  A
C642        C643   1.403       .  A
C642        H647   1.083       .  S
C643        C644   1.413       .  A
C643        O648   1.371       .  S
C644        C645   1.402       .  A
C645        C646   1.403       .  A
C645        H649   1.083       .  S
C646        O650   1.373       .  S
O648        H652   0.991       .  S
O650        H651   0.992       .  S
C653        C655   1.535       .  S
C653        C657   1.545       .  S
C653        C656   1.544       .  S
C653       C1281   1.547       .  S
C654        C658   1.536       .  S
C654        C660   1.547       .  S
C654        C659   1.538       .  S
C654       C1296   1.541       .  S
C655        C663   1.379       .  A
C655        C658   1.389       .  A
C656        C667   1.387       .  A
C656        C659   1.423       .  A
C657        C671   1.377       .  A
C657        C660   1.402       .  A
C658        C661   1.387       .  A
C659        C665   1.369       .  A
C660        C668   1.386       .  A
C661        N662   1.349       .  A
C661        H674   1.077       .  S
N662        C663   1.343       .  A
N662       C1272   1.434       .  S
C663        H664   1.081       .  S
C665        N666   1.343       .  A
C665        H675   1.082       .  S
N666        C667   1.353       .  A
N666        N712   1.399       .  S
C667        H673   1.082       .  S
C668        N669   1.353       .  A
C668        H670   1.081       .  S
N669        C671   1.348       .  A
N669       C1260   1.435       .  S
C671        H672   1.082       .  S
C676        C678   1.538       .  S
C676       C1984   1.547       .  S
C676        C679   1.550       .  S
C676       C1245   1.545       .  S
C677       C1985   1.521       .  S
C677        C683   1.535       .  S
C677        C682   1.548   1_655  S
C677       C1209   1.537   1_655  S
C678        C686   1.381       .  A
C678        C681   1.389       .  A
C679        C690   1.383       .  A
C679       C1986   1.433   1_655  A
C680       C1980   1.548   1_545  S
C680        C694   1.382       .  A
C680        C683   1.383       .  A
C681       C1981   1.521       .  S
C681        C684   1.385   1_655  A
C682       C1983   1.435   1_445  A
C682        C688   1.381       .  A
C683        C691   1.373       .  A
C684        N685   1.347       .  A
C684        H697   1.082       .  S
N685        C686   1.343   1_455  A
N685       C1221   1.429       .  S
C686        H687   1.077       .  S
C688        N689   1.349   1_455  A
C688        H698   1.082       .  S
N689       C1994   1.349   1_545  A
N689       N2039   1.401   1_655  S
C690       N1993   1.349       .  A
C690        H696   1.082       .  S
C691        N692   1.361       .  A
C691        H693   1.080       .  S
N692        C694   1.364       .  A
N692       C1236   1.457       .  S
C694        H695   1.077       .  S
C699        C701   1.535       .  S
C699        C703   1.526       .  S
C699       C1185   1.533       .  S
C700        C704   1.553       .  S
C700        C706   1.543       .  S
C700       C1197   1.540       .  S
C701        C709   1.371       .  A
C701        C704   1.387       .  A
C702        C713   1.376       .  A
C702        C705   1.431       .  A
C703        C717   1.371       .  A
C703        C706   1.386       .  A
C704        C707   1.386       .  A
C705        C711   1.381       .  A
C706        C714   1.396       .  A
C707        N708   1.364       .  A
C707        H720   1.079       .  S
N708        C709   1.354       .  A
N708       C1161   1.453       .  S
C709        H710   1.075       .  S
C711        N712   1.349       .  A
C711        H721   1.082       .  S
N712        C713   1.346       .  A
C713        H719   1.082       .  S
C714        N715   1.355       .  A
C714        H716   1.077       .  S
N715        C717   1.348       .  A
N715       C1173   1.444       .  S
C717        H718   1.082       .  S
C722        C724   1.555   1_455  S
C722       C2030   1.558       .  S
C722       C1125   1.557       .  S
C723       C2031   1.516   1_545  S
C723        C729   1.537   1_655  S
C723       C1149   1.543       .  S
C724        C732   1.384       .  A
C724        C727   1.382       .  A
C725        C736   1.367       .  A
C725       C2032   1.436   1_455  A
C726       C2026   1.557       .  S
C726        C740   1.401   1_565  A
C726        C729   1.394   1_565  A
C727       C2027   1.521       .  S
C727        C730   1.374       .  A
C728       C2029   1.430   1_645  A
C728        C734   1.386       .  A
C729        C737   1.378       .  A
C730        N731   1.349       .  A
C730        H743   1.082       .  S
N731        C732   1.356       .  A
N731       C1137   1.430       .  S
C732        H733   1.080   1_655  S
C734       N2039   1.355   1_655  A
C734        H744   1.082       .  S
N735       C2038   1.355   1_455  A
N735        C736   1.344       .  A
N735       N1993   1.398   1_455  S
C736        H742   1.082       .  S
C737        N738   1.350       .  A
C737        H739   1.076       .  S
N738        C740   1.359       .  A
N738       C1116   1.459       .  S
C740        H741   1.068       .  S
O745        C760   1.252       .  A
O745       Al753   1.837       .  S
C746        O756   1.259       .  A
C746        O747   1.287       .  A
C746       C1065   1.511       .  S
O747       Al749   2.024       .  S
O748        C750   1.255       .  A
O748       Al749   1.882       .  S
Al749       O757   1.919       .  S
Al749       O759   1.997       .  S
Al749       O758   1.780       .  S
C750        O763   1.268       .  A
C750       C1101   1.504       .  S
O751        C761   1.256       .  A
O751       Al753   1.893       .  S
O752        C765   1.260       .  A
O752       Al762   1.885       .  S
Al753       O766   1.986       .  S
Al753       O763   1.961       .  S
Al753       O758   1.787       .  S
O754        C761   1.262       .  A
O754       Al762   1.914       .  S
O755        C764   1.257       .  A
O755       Al762   1.902       .  S
O756       Al762   1.862       .  S
O757        C764   1.255       .  A
O758       Al762   1.770       .  S
O759        C760   1.281       .  A
C760       C1080   1.483       .  S
C761       C1164   1.454       .  S
C764       C1284   1.488       .  S
C765        O766   1.277       .  A
C765       C1089   1.486       .  S
O767        C782   1.270       .  A
O767       Al775   1.864       .  S
C768        O778   1.258       .  A
C768        O769   1.276       .  A
C768       C1041   1.509       .  S
O769       Al771   1.982       .  S
O770        C772   1.248       .  A
O770       Al771   1.886       .  S
Al771       O779   1.904       .  S
Al771       O781   1.998       .  S
Al771       O780   1.777       .  S
C772        O785   1.257       .  A
C772       C1104   1.496       .  S
O773        C783   1.272       .  A
O773       Al775   1.903       .  S
O774        C787   1.250       .  A
O774       Al784   1.892       .  S
Al775       O788   1.967       .  S
Al775       O785   1.946       .  S
Al775       O780   1.796       .  S
O776        C783   1.274       .  A
O776       Al784   1.921       .  S
O777        C786   1.252       .  A
O777       Al784   1.882       .  S
O778       Al784   1.871       .  S
O779        C786   1.253       .  A
O780       Al784   1.768       .  S
O781        C782   1.290       .  A
C782       C1056   1.481       .  S
C783       C1257   1.465       .  S
C786       C1200   1.473       .  S
C787        O788   1.263       .  A
C787       C1092   1.486       .  S
O789        C804   1.281       .  A
O789       Al797   1.923       .  S
C790        O800   1.283       .  A
C790        O791   1.286       .  A
C790       C1068   1.503       .  S
O791       Al793   1.956       .  S
O792        C794   1.243       .  A
O792       Al793   1.885       .  S
Al793       O801   1.919       .  S
Al793       O803   1.942       .  S
Al793       O802   1.777       .  S
C794        O807   1.262       .  A
C794       C1029   1.507       .  S
O795        C805   1.262       .  A
O795       Al797   1.913       .  S
O796        C809   1.257       .  A
O796       Al806   1.887       .  S
Al797       O810   1.958       .  S
Al797       O807   1.964       .  S
Al797       O802   1.771       .  S
O798        C805   1.254       .  A
O798       Al806   1.850       .  S
O799        C808   1.244       .  A
O799       Al806   1.910       .  S
O800       Al806   1.955       .  S
O801        C808   1.248       .  A
O802       Al806   1.761       .  S
O803        C804   1.290       .  A
C804       C1005   1.476       .  S
C805       C1269   1.456       .  S
C808       C1188   1.472       .  S
C809        O810   1.269       .  A
C809       C1020   1.498       .  S
O811        C826   1.285       .  A
O811       Al819   1.927       .  S
C812        O822   1.281       .  A
C812        O813   1.286       .  A
C812       C1044   1.513       .  S
O813       Al815   1.960       .  S
O814        C816   1.241       .  A
O814       Al815   1.870       .  S
Al815       O823   1.935       .  S
Al815       O825   1.950       .  S
Al815       O824   1.772       .  S
C816        O829   1.261       .  A
C816       C1032   1.512       .  S
O817        C827   1.271       .  A
O817       Al819   1.937       .  S
O818        C831   1.250       .  A
O818       Al828   1.879       .  S
Al819       O832   1.963       .  S
Al819       O829   1.961       .  S
Al819       O824   1.773       .  S
O820        C827   1.259       .  A
O820       Al828   1.860       .  S
O821        C830   1.241       .  A
O821       Al828   1.884       .  S
O822       Al828   1.941       .  S
O823        C830   1.251       .  A
O824       Al828   1.752       .  S
O825        C826   1.292       .  A
C826        C993   1.480       .  S
C827       C1176   1.471       .  S
C830       C1293   1.484       .  S
C831        O832   1.266       .  A
C831       C1017   1.496       .  S
O833        C848   1.282       .  A
O833       Al841   1.940       .  S
C834        O844   1.281       .  A
C834        O835   1.277       .  A
C834        C957   1.511       .  S
O835       Al837   1.946       .  S
O836        C838   1.247       .  A
O836       Al837   1.894       .  S
Al837       O845   1.962       .  S
Al837       O847   1.929       .  S
Al837       O846   1.787       .  S
C838        O851   1.259       .  A
C838        C969   1.487       .  S
O839        C849   1.267       .  A
O839       Al841   1.940       .  S
O840        C853   1.259       .  A
O840       Al850   1.893       .  S
Al841       O854   1.907       .  S
Al841       O851   1.933       .  S
Al841       O846   1.776       .  S
O842        C849   1.248       .  A
O842       Al850   1.824       .  S
O843        C852   1.245       .  A
O843       Al850   1.881       .  S
O844       Al850   1.965       .  S
O845        C852   1.259       .  A
O846       Al850   1.764       .  S
O847        C848   1.284       .  A
C848       C1008   1.478       .  S
C849       C1224   1.473       .  S
C852       C1128   1.486       .  S
C853        O854   1.259       .  A
C853        C981   1.478       .  S
O855        C870   1.256       .  A
O855       Al863   1.861       .  S
C856        O866   1.263       .  A
C856        O857   1.287       .  A
C856        C945   1.487       .  S
O857       Al859   2.002       .  S
O858        C860   1.252       .  A
O858       Al859   1.859       .  S
Al859       O867   1.929       .  S
Al859       O869   1.963       .  S
Al859       O868   1.787       .  S
C860        O873   1.268       .  A
C860        C972   1.499       .  S
O861        C871   1.259       .  A
O861       Al863   1.930       .  S
O862        C875   1.266       .  A
O862       Al872   1.883       .  S
Al863       O876   1.980       .  S
Al863       O873   1.953       .  S
Al863       O868   1.786       .  S
O864        C871   1.253       .  A
O864       Al872   1.889       .  S
O865        C874   1.251       .  A
O865       Al872   1.881       .  S
O866       Al872   1.860       .  S
O867        C874   1.253       .  A
O868       Al872   1.768       .  S
O869        C870   1.273       .  A
C870        C996   1.482       .  S
C871       C1113   1.466       .  S
C874       C1212   1.481       .  S
C875        O876   1.281       .  A
C875        C984   1.477       .  S
O877        C892   1.273       .  A
O877       Al885   1.927       .  S
C878        O888   1.266       .  A
C878        O879   1.276       .  A
C878        C960   1.511       .  S
O879       Al881   1.977       .  S
O880        C882   1.257       .  A
O880       Al881   1.914       .  S
Al881       O889   1.969       .  S
Al881       O891   1.940       .  S
Al881       O890   1.783       .  S
C882        O895   1.261       .  A
C882        C921   1.495       .  S
O883        C893   1.269       .  A
O883       Al885   1.945       .  S
O884        C897   1.255       .  A
O884       Al894   1.891       .  S
Al885       O898   1.916       .  S
Al885       O895   1.926       .  S
Al885       O890   1.782       .  S
O886        C893   1.252       .  A
O886       Al894   1.831       .  S
O887        C896   1.256       .  A
O887       Al894   1.870       .  S
O888       Al894   1.934       .  S
O889        C896   1.267       .  A
O890       Al894   1.770       .  S
O891        C892   1.276       .  A
C892       C1077   1.486       .  S
C893       C1140   1.479       .  S
C896       C1248   1.488       .  S
C897        O898   1.258       .  A
C897        C933   1.472       .  S
O899        C914   1.253       .  A
O899       Al907   1.853       .  S
C900        O910   1.261       .  A
C900        O901   1.284       .  A
C900        C948   1.490       .  S
O901       Al903   1.996       .  S
O902        C904   1.253       .  A
O902       Al903   1.866       .  S
Al903       O911   1.915       .  S
Al903       O913   1.970       .  S
Al903       O912   1.790       .  S
C904        O917   1.271       .  A
C904        C924   1.497       .  S
O905        C915   1.252       .  A
O905       Al907   1.905       .  S
O906        C919   1.262       .  A
O906       Al916   1.871       .  S
Al907       O920   1.999       .  S
Al907       O917   1.956       .  S
Al907       O912   1.781       .  S
O908        C915   1.259       .  A
O908       Al916   1.916       .  S
O909        C918   1.260       .  A
O909       Al916   1.912       .  S
O910       Al916   1.860       .  S
O911        C918   1.254       .  A
O912       Al916   1.769       .  S
O913        C914   1.272       .  A
C914       C1053   1.485       .  S
C915       C1233   1.466       .  S
C918       C1152   1.489       .  S
C919        O920   1.282       .  A
C919        C936   1.489       .  S
C921        C922   1.402       .  A
C921        C926   1.416       .  A
C922        C923   1.405       .  A
C922        H927   1.084       .  S
C923        C924   1.419       .  A
C923        O928   1.372       .  S
C924        C925   1.404       .  A
C925        C926   1.408       .  A
C925        H929   1.083       .  S
C926        O930   1.371       .  S
O928        H932   0.992       .  S
O930        H931   0.992       .  S
C933        C934   1.403       .  A
C933        C938   1.405       .  A
C934       C2239   1.408       .  A
C934        H939   1.084       .  S
C935       C2238   1.409   1_545  A
C935        C936   1.411       .  A
C935        O940   1.368       .  S
C936        C937   1.407       .  A
C937       C2242   1.401   1_545  A
C937        H941   1.084       .  S
C938       C2241   1.397       .  A
C938        O942   1.372       .  S
O940        H944   0.991       .  S
O942        H943   0.991       .  S
C945        C946   1.398       .  A
C945        C950   1.417       .  A
C946        C947   1.405   1_455  A
C946        H951   1.084       .  S
C947        C948   1.418       .  A
C947        O952   1.370       .  S
C948        C949   1.399       .  A
C949        C950   1.405   1_655  A
C949        H953   1.083       .  S
C950        O954   1.369       .  S
O952        H956   0.992       .  S
O954        H955   0.992       .  S
C957        C958   1.412       .  A
C957        C962   1.409   1_455  A
C958        C959   1.417       .  A
C958        H963   1.083       .  S
C959        C960   1.411   1_455  A
C959        O964   1.371       .  S
C960        C961   1.413       .  A
C961        C962   1.419       .  A
C961        H965   1.083       .  S
C962        O966   1.371       .  S
O964        H968   0.991       .  S
O966        H967   0.991       .  S
C969        C970   1.412       .  A
C969        C974   1.402       .  A
C970        C971   1.408       .  A
C970        H975   1.084       .  S
C971        C972   1.410       .  A
C971        O976   1.371       .  S
C972        C973   1.414       .  A
C973        C974   1.400       .  A
C973        H977   1.083       .  S
C974        O978   1.372       .  S
O976        H980   0.992       .  S
O978        H979   0.992       .  S
C981        C982   1.406       .  A
C981        C986   1.407       .  A
C982       C2287   1.404       .  A
C982        H987   1.084       .  S
C983       C2286   1.404   1_545  A
C983        C984   1.409       .  A
C983        O988   1.372       .  S
C984        C985   1.401       .  A
C985       C2290   1.400   1_545  A
C985        H989   1.075       .  S
C986       C2289   1.399       .  A
C986        O990   1.372       .  S
O988        H992   0.992       .  S
O990        H991   0.992       .  S
C993        C994   1.408       .  A
C993        C998   1.406       .  A
C994        C995   1.408       .  A
C994        H999   1.084       .  S
C995        C996   1.408       .  A
C995       O1000   1.371       .  S
C996        C997   1.407       .  A
C997        C998   1.404       .  A
C997       H1001   1.084       .  S
C998       O1002   1.372       .  S
O1000      H1004   0.992       .  S
O1002      H1003   0.992       .  S
C1005      C1006   1.406       .  A
C1005      C1010   1.407       .  A
C1006      C1007   1.407       .  A
C1006      H1011   1.084       .  S
C1007      C1008   1.408       .  A
C1007      O1012   1.372       .  S
C1008      C1009   1.404       .  A
C1009      C1010   1.405       .  A
C1009      H1013   1.084       .  S
C1010      O1014   1.371       .  S
O1012      H1016   0.992       .  S
O1014      H1015   0.991       .  S
C1017      C1018   1.410       .  A
C1017      C1022   1.411       .  A
C1018      C1019   1.409       .  A
C1018      H1023   1.084       .  S
C1019      C1020   1.411       .  A
C1019      O1024   1.371       .  S
C1020      C1021   1.410       .  A
C1021      C1022   1.408       .  A
C1021      H1025   1.084       .  S
C1022      O1026   1.371       .  S
O1024      H1028   0.991       .  S
O1026      H1027   0.991       .  S
C1029      C1030   1.400       .  A
C1029      C1034   1.423       .  A
C1030      C2335   1.408       .  A
C1030      H1035   1.083       .  S
C1031      C2334   1.411   1_545  A
C1031      C1032   1.425       .  A
C1031      O1036   1.371       .  S
C1032      C1033   1.403       .  A
C1033      C2338   1.411   1_545  A
C1033      H1037   1.083       .  S
C1034      C2337   1.414       .  A
C1034      O1038   1.372       .  S
O1036      H1040   0.992       .  S
O1038      H1039   0.992       .  S
C1041      C1042   1.413       .  A
C1041      C1046   1.413       .  A
C1042      C1043   1.425       .  A
C1042      H1047   1.083       .  S
C1043      C1044   1.417       .  A
C1043      O1048   1.370       .  S
C1044      C1045   1.408       .  A
C1045      C1046   1.401       .  A
C1045      H1049   1.083       .  S
C1046      O1050   1.374       .  S
O1048      H1052   0.992       .  S
O1050      H1051   0.992       .  S
C1053      C1054   1.402       .  A
C1053      C1058   1.415       .  A
C1054      C1055   1.409       .  A
C1054      H1059   1.084       .  S
C1055      C1056   1.414       .  A
C1055      O1060   1.372       .  S
C1056      C1057   1.401       .  A
C1057      C1058   1.406       .  A
C1057      H1061   1.083       .  S
C1058      O1062   1.374       .  S
O1060      H1064   0.992       .  S
O1062      H1063   0.992       .  S
C1065      C1066   1.412       .  A
C1065      C1070   1.412       .  A
C1066      C1067   1.405       .  A
C1066      H1071   1.081       .  S
C1067      C1068   1.403       .  A
C1067      O1072   1.369       .  S
C1068      C1069   1.415       .  A
C1069      C1070   1.423       .  A
C1069      H1073   1.084       .  S
C1070      O1074   1.371       .  S
O1072      H1076   0.991       .  S
O1074      H1075   0.991       .  S
C1077      C1078   1.407       .  A
C1077      C1082   1.406       .  A
C1078      C1079   1.408       .  A
C1078      H1083   1.084       .  S
C1079      C1080   1.409       .  A
C1079      O1084   1.371       .  S
C1080      C1081   1.411       .  A
C1081      C1082   1.409       .  A
C1081      H1085   1.084       .  S
C1082      O1086   1.371       .  S
O1084      H1088   0.991       .  S
O1086      H1087   0.992       .  S
C1089      C1090   1.402       .  A
C1089      C1094   1.412       .  A
C1090      C1091   1.405       .  A
C1090      H1095   1.080       .  S
C1091      C1092   1.411       .  A
C1091      O1096   1.371       .  S
C1092      C1093   1.404       .  A
C1093      C1094   1.406       .  A
C1093      H1097   1.084       .  S
C1094      O1098   1.371       .  S
O1096      H1100   0.992       .  S
O1098      H1099   0.992       .  S
C1101      C1102   1.410       .  A
C1101      C1106   1.416       .  A
C1102      C2407   1.417       .  A
C1102      H1107   1.083       .  S
C1103      C2406   1.414   1_545  A
C1103      C1104   1.413       .  A
C1103      O1108   1.371       .  S
C1104      C1105   1.405       .  A
C1105      C2410   1.403   1_545  A
C1105      H1109   1.084       .  S
C1106      C2409   1.403       .  A
C1106      O1110   1.372       .  S
O1108      H1112   0.992       .  S
O1110      H1111   0.992       .  S
C1113      C1114   1.396       .  A
C1113      C1118   1.399       .  A
C1114      C1115   1.403       .  A
C1114      H1119   1.079       .  S
C1115      C1116   1.422       .  A
C1115      O1120   1.371       .  S
C1116      C1117   1.413       .  A
C1117      C1118   1.401       .  A
C1117      H1121   1.079       .  S
C1118      O1122   1.370       .  S
O1120      H1124   0.993       .  S
O1122      H1123   0.991       .  S
C1125      C1126   1.400       .  A
C1125      C1130   1.416       .  A
C1126      C1127   1.404       .  A
C1126      H1131   1.081       .  S
C1127      C1128   1.414       .  A
C1127      O1132   1.371       .  S
C1128      C1129   1.404       .  A
C1129      C1130   1.409       .  A
C1129      H1133   1.083       .  S
C1130      O1134   1.372       .  S
O1132      H1136   0.991       .  S
O1134      H1135   0.991   1_556  S
C1137      C1138   1.394       .  A
C1137      C1142   1.407       .  A
C1138      C1139   1.379       .  A
C1138      H1143   1.084       .  S
C1139      C1140   1.418       .  A
C1139      O1144   1.372       .  S
C1140      C1141   1.407       .  A
C1141      C1142   1.406       .  A
C1141      H1145   1.083       .  S
C1142      O1146   1.371       .  S
O1144      H1148   0.992       .  S
O1146      H1147   0.992       .  S
C1149      C1150   1.410       .  A
C1149      C1154   1.427       .  A
C1150      C1151   1.420       .  A
C1150      H1155   1.082       .  S
C1151      C1152   1.416       .  A
C1151      O1156   1.370       .  S
C1152      C1153   1.392       .  A
C1153      C1154   1.388       .  A
C1153      H1157   1.085       .  S
C1154      O1158   1.376   1_545  S
O1156      H1160   0.991       .  S
O1158      H2463   0.993       .  S
H1159      O2462   0.993       .  S
C1161      C1162   1.410       .  A
C1161      C1166   1.423       .  A
C1162      C1163   1.393       .  A
C1162      H1167   1.082       .  S
C1163      C1164   1.399       .  A
C1163      O1168   1.371       .  S
C1164      C1165   1.392       .  A
C1165      C1166   1.398       .  A
C1165      H1169   1.083       .  S
C1166      O1170   1.368       .  S
O1168      H1172   0.992       .  S
O1170      H1171   0.991       .  S
C1173      C1174   1.400       .  A
C1173      C1178   1.417       .  A
C1174      C1175   1.384       .  A
C1174      H1179   1.082       .  S
C1175      C1176   1.409       .  A
C1175      O1180   1.374       .  S
C1176      C1177   1.402       .  A
C1177      C1178   1.411       .  A
C1177      H1181   1.083       .  S
C1178      O1182   1.371       .  S
O1180      H1184   0.992       .  S
O1182      H1183   0.992       .  S
C1185      C1186   1.415       .  A
C1185      C1190   1.421       .  A
C1186      C1187   1.415       .  A
C1186      H1191   1.081       .  S
C1187      C1188   1.408       .  A
C1187      O1192   1.371       .  S
C1188      C1189   1.388       .  A
C1189      C1190   1.382       .  A
C1189      H1193   1.077       .  S
C1190      O1194   1.374       .  S
O1192      H1196   0.992       .  S
O1194      H1195   0.992       .  S
C1197      C1198   1.407       .  A
C1197      C1202   1.411       .  A
C1198      C1199   1.404       .  A
C1198      H1203   1.083       .  S
C1199      C1200   1.407       .  A
C1199      O1204   1.371       .  S
C1200      C1201   1.402       .  A
C1201      C1202   1.401       .  A
C1201      H1205   1.084       .  S
C1202      O1206   1.370       .  S
O1204      H1208   0.991       .  S
O1206      H1207   0.991       .  S
C1209      C1210   1.415       .  A
C1209      C1214   1.422       .  A
C1210      C1211   1.417       .  A
C1210      H1215   1.081       .  S
C1211      C1212   1.409       .  A
C1211      O1216   1.370       .  S
C1212      C1213   1.394       .  A
C1213      C1214   1.387       .  A
C1213      H1217   1.085       .  S
C1214      O1218   1.376   1_455  S
O1216      H1220   0.991       .  S
O1218      H1219   0.993       .  S
C1221      C1222   1.392       .  A
C1221      C1226   1.408       .  A
C1222      C1223   1.387       .  A
C1222      H1227   1.084   1_455  S
C1223      C1224   1.417       .  A
C1223      O1228   1.372       .  S
C1224      C1225   1.404       .  A
C1225      C1226   1.405       .  A
C1225      H1229   1.083       .  S
C1226      O1230   1.371       .  S
O1228      H1232   0.992       .  S
O1230      H1231   0.992       .  S
C1233      C1234   1.392       .  A
C1233      C1238   1.401       .  A
C1234      C1235   1.395       .  A
C1234      H1239   1.079       .  S
C1235      C1236   1.420       .  A
C1235      O1240   1.370       .  S
C1236      C1237   1.416       .  A
C1237      C1238   1.404       .  A
C1237      H1241   1.082       .  S
C1238      O1242   1.370       .  S
O1240      H1244   0.993       .  S
O1242      H1243   0.992       .  S
C1245      C1246   1.410       .  A
C1245      C1250   1.425       .  A
C1246      C1247   1.394       .  A
C1246      H1251   1.070       .  S
C1247      C1248   1.403       .  A
C1247      O1252   1.375       .  S
C1248      C1249   1.405       .  A
C1249      C1250   1.418       .  A
C1249      H1253   1.083       .  S
C1250      O1254   1.372       .  S
O1252      H1256   0.993       .  S
O1254      H1255   0.992       .  S
C1257      C1258   1.400       .  A
C1257      C1262   1.404       .  A
C1258      C1259   1.389       .  A
C1258      H1263   1.083       .  S
C1259      C1260   1.411       .  A
C1259      O1264   1.372       .  S
C1260      C1261   1.407       .  A
C1261      C1262   1.404       .  A
C1261      H1265   1.083       .  S
C1262      O1266   1.371       .  S
O1264      H1268   0.992       .  S
O1266      H1267   0.992       .  S
C1269      C1270   1.401       .  A
C1269      C1274   1.403       .  A
C1270      C1271   1.387       .  A
C1270      H1275   1.079       .  S
C1271      C1272   1.405       .  A
C1271      O1276   1.372       .  S
C1272      C1273   1.409       .  A
C1273      C1274   1.399       .  A
C1273      H1277   1.083       .  S
C1274      O1278   1.371       .  S
O1276      H1280   0.992       .  S
O1278      H1279   0.991       .  S
C1281      C1282   1.416       .  A
C1281      C1286   1.420       .  A
C1282      C1283   1.389       .  A
C1282      H1287   1.078       .  S
C1283      C1284   1.401       .  A
C1283      O1288   1.374       .  S
C1284      C1285   1.408       .  A
C1285      C1286   1.418       .  A
C1285      H1289   1.083       .  S
C1286      O1290   1.369       .  S
O1288      H1292   0.991       .  S
O1290      H1291   0.991       .  S
C1293      C1294   1.404       .  A
C1293      C1298   1.415       .  A
C1294      C1295   1.401       .  A
C1294      H1299   1.083       .  S
C1295      C1296   1.412       .  A
C1295      O1300   1.371       .  S
C1296      C1297   1.403       .  A
C1297      C1298   1.402       .  A
C1297      H1301   1.083       .  S
C1298      O1302   1.373       .  S
O1300      H1304   0.992       .  S
O1302      H1303   0.992       .  S
C1305      C1307   1.532       .  S
C1305      C1309   1.546       .  S
C1305      C1308   1.546       .  S
C1305      C1933   1.551       .  S
C1306      C1310   1.536       .  S
C1306      C1312   1.546       .  S
C1306      C1311   1.532       .  S
C1306      C1948   1.542       .  S
C1307      C1315   1.374       .  A
C1307      C1310   1.390       .  A
C1308      C1319   1.387       .  A
C1308      C1311   1.425       .  A
C1309      C1323   1.378       .  A
C1309      C1312   1.405       .  A
C1310      C1313   1.390       .  A
C1311      C1317   1.367       .  A
C1312      C1320   1.382       .  A
C1313      N1314   1.351       .  A
C1313      H1326   1.078       .  S
N1314      C1315   1.341       .  A
N1314      C1924   1.432       .  S
C1315      H1316   1.081       .  S
C1317      N1318   1.340       .  A
C1317      H1327   1.083       .  S
N1318      C1319   1.353       .  A
N1318      N1364   1.397       .  S
C1319      H1325   1.082       .  S
C1320      N1321   1.349       .  A
C1320      H1322   1.081       .  S
N1321      C1323   1.348       .  A
N1321      C1912   1.431       .  S
C1323      H1324   1.081       .  S
C1328      C1330   1.541       .  S
C1328      C1331   1.552       .  S
C1328      C1897   1.544       .  S
C1329      C1335   1.537       .  S
C1329      C1334   1.547   1_655  S
C1329      C1861   1.535   1_655  S
C1330      C1338   1.386       .  A
C1330      C1333   1.386   1_565  A
C1331      C1342   1.385       .  A
C1332      C1346   1.381       .  A
C1332      C1335   1.383       .  A
C1333      C1336   1.387   1_645  A
C1334      C1340   1.381       .  A
C1335      C1343   1.374       .  A
C1336      N1337   1.349       .  A
C1336      H1349   1.083   1_565  S
N1337      C1338   1.347   1_455  A
N1337      C1873   1.434       .  S
C1338      H1339   1.078       .  S
C1340      N1341   1.348   1_455  A
C1340      H1350   1.082       .  S
C1342      H1348   1.082       .  S
C1343      N1344   1.361       .  A
C1343      H1345   1.080       .  S
N1344      C1346   1.363       .  A
N1344      C1888   1.457       .  S
C1346      H1347   1.077       .  S
C1351      C1353   1.538       .  S
C1351      C1355   1.526       .  S
C1351      C2006   1.533       .  S
C1351      C1837   1.539       .  S
C1352      C1356   1.555       .  S
C1352      C1358   1.536       .  S
C1352      C2009   1.555       .  S
C1352      C1849   1.544       .  S
C1353      C1361   1.367       .  A
C1353      C1356   1.395       .  A
C1354      C2003   1.526       .  S
C1354      C1365   1.374       .  A
C1354      C1357   1.427       .  A
C1355      C1369   1.376       .  A
C1355      C1358   1.381       .  A
C1356      C1359   1.386       .  A
C1357      C2004   1.554       .  S
C1357      C1363   1.383       .  A
C1358      C1366   1.388       .  A
C1359      N1360   1.366       .  A
C1359      H1372   1.078       .  S
N1360      C1361   1.354       .  A
N1360      C1813   1.451       .  S
C1361      H1362   1.075       .  S
C1363      N1364   1.349   1_556  A
C1363      H1373   1.082   1_556  S
N1364      C1365   1.342   1_554  A
C1365      H1371   1.082   1_556  S
C1366      N1367   1.352       .  A
C1366      H1368   1.078       .  S
N1367      C1369   1.351       .  A
N1367      C1825   1.438       .  S
C1369      H1370   1.083       .  S
C1374      C1376   1.552   1_455  S
C1374      C2029   1.544       .  S
C1374      C1777   1.552       .  S
C1375      C1381   1.528   1_655  S
C1375      C2032   1.551       .  S
C1375      C1801   1.551       .  S
C1376      C1384   1.383       .  A
C1376      C1379   1.393       .  A
C1377      C2026   1.543       .  S
C1377      C1388   1.370   1_556  A
C1378      C1392   1.401       .  A
C1378      C1381   1.392       .  A
C1379      C1382   1.374       .  A
C1380      C2027   1.551       .  S
C1380      C1386   1.387   1_556  A
C1381      C1389   1.373       .  A
C1382      N1383   1.350       .  A
C1382      H1395   1.082       .  S
N1383      C1384   1.354       .  A
N1383      C1789   1.431       .  S
C1384      H1385   1.081   1_655  S
C1386      H1396   1.082       .  S
N1387      C1388   1.348   1_645  A
C1388      H1394   1.082       .  S
C1389      N1390   1.342       .  A
C1389      H1391   1.080   1_455  S
N1390      C1392   1.356       .  A
N1390      C1768   1.447       .  S
C1392      H1393   1.075       .  S
O1397      C1412   1.251       .  A
O1397     Al1405   1.838       .  S
C1398      O1408   1.260       .  A
C1398      O1399   1.287       .  A
C1398      C1717   1.506       .  S
O1399     Al1401   2.018       .  S
O1400      C1402   1.253       .  A
O1400     Al1401   1.877       .  S
Al1401     O1409   1.912       .  S
Al1401     O1411   1.996       .  S
Al1401     O1410   1.788       .  S
C1402      O1415   1.268       .  A
C1402      C1753   1.497       .  S
O1403      C1413   1.251       .  A
O1403     Al1405   1.882       .  S
O1404      C1417   1.261       .  A
O1404     Al1414   1.888       .  S
Al1405     O1418   1.988       .  S
Al1405     O1415   1.951       .  S
Al1405     O1410   1.785       .  S
O1406      C1413   1.263       .  A
O1406     Al1414   1.930       .  S
O1407      C1416   1.260       .  A
O1407     Al1414   1.916       .  S
O1408     Al1414   1.865       .  S
O1409      C1416   1.254       .  A
O1410     Al1414   1.774       .  S
O1411      C1412   1.280       .  A
C1412      C1732   1.486       .  S
C1413      C1816   1.457       .  S
C1416      C1936   1.490       .  S
C1417      O1418   1.278       .  A
C1417      C1741   1.489       .  S
O1419      C1434   1.275       .  A
O1419     Al1427   1.915       .  S
C1420      O1430   1.262       .  A
C1420      O1421   1.282       .  A
C1420      C1693   1.528       .  S
O1421     Al1423   2.007       .  S
O1422      C1424   1.246       .  A
O1422     Al1423   1.885       .  S
Al1423     O1431   1.949       .  S
Al1423     O1433   1.952       .  S
Al1423     O1432   1.786       .  S
C1424      O1437   1.257       .  A
C1424      C1756   1.496       .  S
O1425      C1435   1.267       .  A
O1425     Al1427   1.910       .  S
O1426      C1439   1.244       .  A
O1426     Al1436   1.854       .  S
Al1427     O1440   1.945       .  S
Al1427     O1437   1.938       .  S
Al1427     O1432   1.786       .  S
O1428      C1435   1.263       .  A
O1428     Al1436   1.869       .  S
O1429      C1438   1.256       .  A
O1429     Al1436   1.899       .  S
O1430     Al1436   1.910       .  S
O1431      C1438   1.263       .  A
O1432     Al1436   1.776       .  S
O1433      C1434   1.283       .  A
C1434      C1708   1.484       .  S
C1435      C1909   1.474       .  S
C1438      C1852   1.481       .  S
C1439      O1440   1.260       .  A
C1439      C1744   1.484       .  S
O1441      C1456   1.282       .  A
O1441     Al1449   1.924       .  S
C1442      O1452   1.283       .  A
C1442      O1443   1.287       .  A
C1442      C1720   1.498       .  S
O1443     Al1445   1.954       .  S
O1444      C1446   1.243       .  A
O1444     Al1445   1.885       .  S
Al1445     O1453   1.931       .  S
Al1445     O1455   1.956       .  S
Al1445     O1454   1.773       .  S
C1446      O1459   1.261       .  A
C1446      C1681   1.509       .  S
O1447      C1457   1.263       .  A
O1447     Al1449   1.914       .  S
O1448      C1461   1.258       .  A
O1448     Al1458   1.888       .  S
Al1449     O1462   1.949       .  S
Al1449     O1459   1.961       .  S
Al1449     O1454   1.770       .  S
O1450      C1457   1.254       .  A
O1450     Al1458   1.850       .  S
O1451      C1460   1.244       .  A
O1451     Al1458   1.908       .  S
O1452     Al1458   1.950       .  S
O1453      C1460   1.249       .  A
O1454     Al1458   1.761       .  S
O1455      C1456   1.294       .  A
C1456      C1657   1.485       .  S
C1457      C1921   1.458       .  S
C1460      C1840   1.480       .  S
C1461      O1462   1.268       .  A
C1461      C1672   1.494       .  S
O1463      C1478   1.285       .  A
O1463     Al1471   1.936       .  S
C1464      O1474   1.284       .  A
C1464      O1465   1.284       .  A
C1464      C1696   1.519       .  S
O1465     Al1467   1.961       .  S
O1466      C1468   1.242       .  A
O1466     Al1467   1.871       .  S
Al1467     O1475   1.946       .  S
Al1467     O1477   1.940       .  S
Al1467     O1476   1.779       .  S
C1468      O1481   1.262       .  A
C1468      C1684   1.509       .  S
O1469      C1479   1.270       .  A
O1469     Al1471   1.938       .  S
O1470      C1483   1.253       .  A
O1470     Al1480   1.880       .  S
Al1471     O1484   1.946       .  S
Al1471     O1481   1.965       .  S
Al1471     O1476   1.770       .  S
O1472      C1479   1.253       .  A
O1472     Al1480   1.838       .  S
O1473      C1482   1.241       .  A
O1473     Al1480   1.881       .  S
O1474     Al1480   1.958       .  S
O1475      C1482   1.254       .  A
O1476     Al1480   1.752       .  S
O1477      C1478   1.289       .  A
C1478      C1645   1.479       .  S
C1479      C1828   1.467       .  S
C1482      C1945   1.482       .  S
C1483      O1484   1.266       .  A
C1483      C1669   1.493       .  S
O1485      C1500   1.283       .  A
O1485     Al1493   1.947       .  S
C1486      O1496   1.281       .  A
C1486      O1487   1.279       .  A
C1486      C1609   1.510       .  S
O1487     Al1489   1.947       .  S
O1488      C1490   1.246       .  A
O1488     Al1489   1.888       .  S
Al1489     O1497   1.952       .  S
Al1489     O1499   1.937       .  S
Al1489     O1498   1.787       .  S
C1490      O1503   1.260       .  A
C1490      C1621   1.490       .  S
O1491      C1501   1.269       .  A
O1491     Al1493   1.949       .  S
O1492      C1505   1.258       .  A
O1492     Al1502   1.888       .  S
Al1493     O1506   1.914       .  S
Al1493     O1503   1.943       .  S
Al1493     O1498   1.775       .  S
O1494      C1501   1.249       .  A
O1494     Al1502   1.833       .  S
O1495      C1504   1.245       .  A
O1495     Al1502   1.884       .  S
O1496     Al1502   1.966       .  S
O1497      C1504   1.256       .  A
O1498     Al1502   1.763       .  S
O1499      C1500   1.286       .  A
C1500      C1660   1.485       .  S
C1501      C1876   1.481       .  S
C1504      C1780   1.486       .  S
C1505      O1506   1.261       .  A
C1505      C1633   1.480       .  S
O1507      C1522   1.258       .  A
O1507     Al1515   1.864       .  S
C1508      O1518   1.266       .  A
C1508      O1509   1.288       .  A
C1508      C1597   1.484       .  S
O1509     Al1511   1.997       .  S
O1510      C1512   1.250       .  A
O1510     Al1511   1.859       .  S
Al1511     O1519   1.931       .  S
Al1511     O1521   1.956       .  S
Al1511     O1520   1.784       .  S
C1512      O1525   1.264       .  A
C1512      C1624   1.498       .  S
O1513      C1523   1.259       .  A
O1513     Al1515   1.936       .  S
O1514      C1527   1.269       .  A
O1514     Al1524   1.884       .  S
Al1515     O1528   1.972       .  S
Al1515     O1525   1.942       .  S
Al1515     O1520   1.785       .  S
O1516      C1523   1.249       .  A
O1516     Al1524   1.877       .  S
O1517      C1526   1.246       .  A
O1517     Al1524   1.862       .  S
O1518     Al1524   1.868       .  S
O1519      C1526   1.250       .  A
O1520     Al1524   1.767       .  S
O1521      C1522   1.274       .  A
C1522      C1648   1.479       .  S
C1523      C1765   1.460       .  S
C1526      C1864   1.478       .  S
C1527      O1528   1.281       .  A
C1527      C1636   1.474       .  S
O1529      C1544   1.273       .  A
O1529     Al1537   1.927       .  S
C1530      O1540   1.264       .  A
C1530      O1531   1.275       .  A
C1530      C1612   1.510       .  S
O1531     Al1533   1.977       .  S
O1532      C1534   1.255       .  A
O1532     Al1533   1.906       .  S
Al1533     O1541   1.965       .  S
Al1533     O1543   1.943       .  S
Al1533     O1542   1.784       .  S
C1534      O1547   1.260       .  A
C1534      C1573   1.492       .  S
O1535      C1545   1.269       .  A
O1535     Al1537   1.939       .  S
O1536      C1549   1.256       .  A
O1536     Al1546   1.894       .  S
Al1537     O1550   1.920       .  S
Al1537     O1547   1.926       .  S
Al1537     O1542   1.780       .  S
O1538      C1545   1.253       .  A
O1538     Al1546   1.838       .  S
O1539      C1548   1.257       .  A
O1539     Al1546   1.863       .  S
O1540     Al1546   1.929       .  S
O1541      C1548   1.267       .  A
O1542     Al1546   1.775       .  S
O1543      C1544   1.276       .  A
C1544      C1729   1.489       .  S
C1545      C1792   1.477       .  S
C1548      C1900   1.486       .  S
C1549      O1550   1.258       .  A
C1549      C1585   1.475       .  S
O1551      C1566   1.252       .  A
O1551     Al1559   1.845       .  S
C1552      O1562   1.261       .  A
C1552      O1553   1.288       .  A
C1552      C1600   1.496       .  S
O1553     Al1555   2.009       .  S
O1554      C1556   1.254       .  A
O1554     Al1555   1.873       .  S
Al1555     O1563   1.923       .  S
Al1555     O1565   1.976       .  S
Al1555     O1564   1.788       .  S
C1556      O1569   1.268       .  A
C1556      C1576   1.497       .  S
O1557      C1567   1.252       .  A
O1557     Al1559   1.906       .  S
O1558      C1571   1.263       .  A
O1558     Al1568   1.870       .  S
Al1559     O1572   1.991       .  S
Al1559     O1569   1.946       .  S
Al1559     O1564   1.781       .  S
O1560      C1567   1.260       .  A
O1560     Al1568   1.929       .  S
O1561      C1570   1.259       .  A
O1561     Al1568   1.915       .  S
O1562     Al1568   1.854       .  S
O1563      C1570   1.253       .  A
O1564     Al1568   1.773       .  S
O1565      C1566   1.275       .  A
C1566      C1705   1.483       .  S
C1567      C1885   1.471       .  S
C1570      C1804   1.496       .  S
C1571      O1572   1.281       .  A
C1571      C1588   1.485       .  S
C1573      C1574   1.402       .  A
C1573      C1578   1.415       .  A
C1574      C1575   1.405       .  A
C1574      H1579   1.084       .  S
C1575      C1576   1.419       .  A
C1575      O1580   1.372       .  S
C1576      C1577   1.404       .  A
C1577      C1578   1.406       .  A
C1577      H1581   1.083       .  S
C1578      O1582   1.371       .  S
O1580      H1584   0.992       .  S
O1582      H1583   0.992       .  S
C1585      C1586   1.404       .  A
C1585      C1590   1.406       .  A
C1586      H1591   1.084       .  S
C1587      C1588   1.410       .  A
C1587      O1592   1.368       .  S
C1588      C1589   1.407       .  A
C1589      H1593   1.084       .  S
C1590      O1594   1.372       .  S
O1592      H1596   0.991       .  S
O1594      H1595   0.992       .  S
C1597      C1598   1.396       .  A
C1597      C1602   1.416       .  A
C1598      C1599   1.403   1_455  A
C1598      H1603   1.084       .  S
C1599      C1600   1.419       .  A
C1599      O1604   1.368       .  S
C1600      C1601   1.402       .  A
C1601      C1602   1.410   1_655  A
C1601      H1605   1.083       .  S
C1602      O1606   1.371       .  S
O1604      H1608   0.992       .  S
O1606      H1607   0.992       .  S
C1609      C1610   1.410       .  A
C1609      C1614   1.409   1_455  A
C1610      C1611   1.416       .  A
C1610      H1615   1.082       .  S
C1611      C1612   1.409   1_455  A
C1611      O1616   1.371       .  S
C1612      C1613   1.414       .  A
C1613      C1614   1.420       .  A
C1613      H1617   1.083       .  S
C1614      O1618   1.370       .  S
O1616      H1620   0.991       .  S
O1618      H1619   0.991       .  S
C1621      C1622   1.413       .  A
C1621      C1626   1.403       .  A
C1622      C1623   1.408       .  A
C1622      H1627   1.084       .  S
C1623      C1624   1.410       .  A
C1623      O1628   1.371       .  S
C1624      C1625   1.414       .  A
C1625      C1626   1.402       .  A
C1625      H1629   1.083       .  S
C1626      O1630   1.371       .  S
O1628      H1632   0.992       .  S
O1630      H1631   0.992       .  S
C1633      C1634   1.406       .  A
C1633      C1638   1.408       .  A
C1634      H1639   1.084       .  S
C1635      C1636   1.409       .  A
C1635      O1640   1.372       .  S
C1636      C1637   1.404       .  A
C1637      H1641   1.084       .  S
C1638      O1642   1.372       .  S
O1640      H1644   0.992       .  S
O1642      H1643   0.992       .  S
C1645      C1646   1.408       .  A
C1645      C1650   1.406       .  A
C1646      C1647   1.408       .  A
C1646      H1651   1.084       .  S
C1647      C1648   1.407       .  A
C1647      O1652   1.371       .  S
C1648      C1649   1.407       .  A
C1649      C1650   1.403       .  A
C1649      H1653   1.084       .  S
C1650      O1654   1.372       .  S
O1652      H1656   0.992       .  S
O1654      H1655   0.992       .  S
C1657      C1658   1.406       .  A
C1657      C1662   1.410       .  A
C1658      C1659   1.404       .  A
C1658      H1663   1.084       .  S
C1659      C1660   1.407       .  A
C1659      O1664   1.372       .  S
C1660      C1661   1.407       .  A
C1661      C1662   1.412       .  A
C1661      H1665   1.084       .  S
C1662      O1666   1.371       .  S
O1664      H1668   0.992       .  S
O1666      H1667   0.992       .  S
C1669      C1670   1.409       .  A
C1669      C1674   1.411       .  A
C1670      C1671   1.407       .  A
C1670      H1675   1.084       .  S
C1671      C1672   1.411       .  A
C1671      O1676   1.371       .  S
C1672      C1673   1.408       .  A
C1673      C1674   1.407       .  A
C1673      H1677   1.084       .  S
C1674      O1678   1.371       .  S
O1676      H1680   0.992       .  S
O1678      H1679   0.991       .  S
C1681      C1682   1.401       .  A
C1681      C1686   1.425       .  A
C1682      H1687   1.083       .  S
C1683      C1684   1.425       .  A
C1683      O1688   1.372       .  S
C1684      C1685   1.402       .  A
C1685      H1689   1.083       .  S
C1686      O1690   1.372       .  S
O1688      H1692   0.992       .  S
O1690      H1691   0.992       .  S
C1693      C1694   1.417       .  A
C1693      C1698   1.422       .  A
C1694      C1695   1.432       .  A
C1694      H1699   1.083       .  S
C1695      C1696   1.419       .  A
C1695      O1700   1.370       .  S
C1696      C1697   1.403       .  A
C1697      C1698   1.400       .  A
C1697      H1701   1.082       .  S
C1698      O1702   1.373       .  S
O1700      H1704   0.992       .  S
O1702      H1703   0.992       .  S
C1705      C1706   1.403       .  A
C1705      C1710   1.414       .  A
C1706      C1707   1.409       .  A
C1706      H1711   1.084       .  S
C1707      C1708   1.412       .  A
C1707      O1712   1.371       .  S
C1708      C1709   1.402       .  A
C1709      C1710   1.408       .  A
C1709      H1713   1.084       .  S
C1710      O1714   1.373       .  S
O1712      H1716   0.991       .  S
O1714      H1715   0.992       .  S
C1717      C1718   1.412       .  A
C1717      C1722   1.410       .  A
C1718      C1719   1.406       .  A
C1718      H1723   1.080       .  S
C1719      C1720   1.403       .  A
C1719      O1724   1.370       .  S
C1720      C1721   1.413       .  A
C1721      C1722   1.420       .  A
C1721      H1725   1.083       .  S
C1722      O1726   1.371       .  S
O1724      H1728   0.991       .  S
O1726      H1727   0.991       .  S
C1729      C1730   1.408       .  A
C1729      C1734   1.406       .  A
C1730      C1731   1.411       .  A
C1730      H1735   1.084       .  S
C1731      C1732   1.410       .  A
C1731      O1736   1.371       .  S
C1732      C1733   1.411       .  A
C1733      C1734   1.407       .  A
C1733      H1737   1.084       .  S
C1734      O1738   1.371       .  S
O1736      H1740   0.992       .  S
O1738      H1739   0.992       .  S
C1741      C1742   1.401       .  A
C1741      C1746   1.411       .  A
C1742      C1743   1.407       .  A
C1742      H1747   1.079       .  S
C1743      C1744   1.411       .  A
C1743      O1748   1.371       .  S
C1744      C1745   1.405       .  A
C1745      C1746   1.408       .  A
C1745      H1749   1.084       .  S
C1746      O1750   1.371       .  S
O1748      H1752   0.992       .  S
O1750      H1751   0.991       .  S
C1753      C1754   1.412       .  A
C1753      C1758   1.409       .  A
C1754      H1759   1.083       .  S
C1755      C1756   1.416       .  A
C1755      O1760   1.372       .  S
C1756      C1757   1.402       .  A
C1757      H1761   1.083       .  S
C1758      O1762   1.371       .  S
O1760      H1764   0.992       .  S
O1762      H1763   0.992       .  S
C1765      C1766   1.398       .  A
C1765      C1770   1.405       .  A
C1766      C1767   1.389       .  A
C1766      H1771   1.079       .  S
C1767      C1768   1.415       .  A
C1767      O1772   1.372       .  S
C1768      C1769   1.410       .  A
C1769      C1770   1.404       .  A
C1769      H1773   1.082       .  S
C1770      O1774   1.371       .  S
O1772      H1776   0.992       .  S
O1774      H1775   0.992       .  S
C1777      C1778   1.400       .  A
C1777      C1782   1.416       .  A
C1778      C1779   1.404       .  A
C1778      H1783   1.082       .  S
C1779      C1780   1.414       .  A
C1779      O1784   1.371       .  S
C1780      C1781   1.404       .  A
C1781      C1782   1.407       .  A
C1781      H1785   1.083       .  S
C1782      O1786   1.372       .  S
O1784      H1788   0.991       .  S
O1786      H1787   0.992       .  S
C1789      C1790   1.397       .  A
C1789      C1794   1.405       .  A
C1790      C1791   1.382       .  A
C1790      H1795   1.083       .  S
C1791      C1792   1.417       .  A
C1791      O1796   1.373       .  S
C1792      C1793   1.406       .  A
C1793      C1794   1.404       .  A
C1793      H1797   1.083       .  S
C1794      O1798   1.371       .  S
O1796      H1800   0.992       .  S
O1798      H1799   0.992       .  S
C1801      C1802   1.412       .  A
C1801      C1806   1.431       .  A
C1802      C1803   1.423       .  A
C1802      H1807   1.082       .  S
C1803      C1804   1.417       .  A
C1803      O1808   1.370       .  S
C1804      C1805   1.392       .  A
C1805      C1806   1.390       .  A
C1805      H1809   1.085       .  S
C1806      O1810   1.376       .  S
O1808      H1812   0.992       .  S
C1813      C1814   1.408       .  A
C1813      C1818   1.421       .  A
C1814      C1815   1.400       .  A
C1814      H1819   1.083       .  S
C1815      C1816   1.400       .  A
C1815      O1820   1.374       .  S
C1816      C1817   1.392       .  A
C1817      C1818   1.397       .  A
C1817      H1821   1.081       .  S
C1818      O1822   1.371       .  S
O1820      H1824   0.991       .  S
O1822      H1823   0.992       .  S
C1825      C1826   1.398       .  A
C1825      C1830   1.417       .  A
C1826      C1827   1.387       .  A
C1826      H1831   1.083       .  S
C1827      C1828   1.412       .  A
C1827      O1832   1.374       .  S
C1828      C1829   1.399       .  A
C1829      C1830   1.407       .  A
C1829      H1833   1.083       .  S
C1830      O1834   1.371       .  S
O1832      H1836   0.992       .  S
O1834      H1835   0.992       .  S
C1837      C1838   1.413       .  A
C1837      C1842   1.423       .  A
C1838      C1839   1.415       .  A
C1838      H1843   1.081       .  S
C1839      C1840   1.408       .  A
C1839      O1844   1.370       .  S
C1840      C1841   1.392       .  A
C1841      C1842   1.390       .  A
C1841      H1845   1.080       .  S
C1842      O1846   1.373       .  S
O1844      H1848   0.992       .  S
O1846      H1847   0.992       .  S
C1849      C1850   1.412       .  A
C1849      C1854   1.410       .  A
C1850      C1851   1.405       .  A
C1850      H1855   1.084       .  S
C1851      C1852   1.408       .  A
C1851      O1856   1.371       .  S
C1852      C1853   1.404       .  A
C1853      C1854   1.402       .  A
C1853      H1857   1.084       .  S
C1854      O1858   1.367       .  S
O1856      H1860   0.991       .  S
O1858      H1859   0.991       .  S
C1861      C1862   1.416       .  A
C1861      C1866   1.421       .  A
C1862      C1863   1.416       .  A
C1862      H1867   1.081       .  S
C1863      C1864   1.408       .  A
C1863      O1868   1.371       .  S
C1864      C1865   1.394       .  A
C1865      C1866   1.386       .  A
C1865      H1869   1.085       .  S
C1866      O1870   1.376   1_455  S
O1868      H1872   0.991       .  S
O1870      H1871   0.993       .  S
C1873      C1874   1.393       .  A
C1873      C1878   1.409       .  A
C1874      C1875   1.391       .  A
C1874      H1879   1.084   1_455  S
C1875      C1876   1.418       .  A
C1875      O1880   1.373       .  S
C1876      C1877   1.405       .  A
C1877      C1878   1.409       .  A
C1877      H1881   1.083       .  S
C1878      O1882   1.371       .  S
O1880      H1884   0.992       .  S
O1882      H1883   0.992       .  S
C1885      C1886   1.393       .  A
C1885      C1890   1.401       .  A
C1886      C1887   1.397       .  A
C1886      H1891   1.077       .  S
C1887      C1888   1.419       .  A
C1887      O1892   1.372       .  S
C1888      C1889   1.415       .  A
C1889      C1890   1.404       .  A
C1889      H1893   1.082       .  S
C1890      O1894   1.368       .  S
O1892      H1896   0.992       .  S
O1894      H1895   0.991       .  S
C1897      C1898   1.410       .  A
C1897      C1902   1.423       .  A
C1898      C1899   1.388       .  A
C1898      H1903   1.065       .  S
C1899      C1900   1.401       .  A
C1899      O1904   1.376       .  S
C1900      C1901   1.406       .  A
C1901      C1902   1.419       .  A
C1901      H1905   1.083       .  S
C1902      O1906   1.371       .  S
O1904      H1908   0.993       .  S
O1906      H1907   0.992       .  S
C1909      C1910   1.403       .  A
C1909      C1914   1.411       .  A
C1910      C1911   1.385       .  A
C1910      H1915   1.082       .  S
C1911      C1912   1.410       .  A
C1911      O1916   1.373       .  S
C1912      C1913   1.402       .  A
C1913      C1914   1.401       .  A
C1913      H1917   1.083       .  S
C1914      O1918   1.371       .  S
O1916      H1920   0.992       .  S
O1918      H1919   0.992       .  S
C1921      C1922   1.401       .  A
C1921      C1926   1.404       .  A
C1922      C1923   1.386       .  A
C1922      H1927   1.082       .  S
C1923      C1924   1.407       .  A
C1923      O1928   1.372       .  S
C1924      C1925   1.407       .  A
C1925      C1926   1.400       .  A
C1925      H1929   1.083       .  S
C1926      O1930   1.371       .  S
O1928      H1932   0.992       .  S
O1930      H1931   0.991       .  S
C1933      C1934   1.417       .  A
C1933      C1938   1.422       .  A
C1934      C1935   1.392       .  A
C1934      H1939   1.077       .  S
C1935      C1936   1.399       .  A
C1935      O1940   1.374       .  S
C1936      C1937   1.409       .  A
C1937      C1938   1.420       .  A
C1937      H1941   1.083       .  S
C1938      O1942   1.369       .  S
O1940      H1944   0.991       .  S
O1942      H1943   0.991       .  S
C1945      C1946   1.402       .  A
C1945      C1950   1.415       .  A
C1946      C1947   1.401       .  A
C1946      H1951   1.083       .  S
C1947      C1948   1.415       .  A
C1947      O1952   1.371       .  S
C1948      C1949   1.401       .  A
C1949      C1950   1.402       .  A
C1949      H1953   1.083       .  S
C1950      O1954   1.374       .  S
O1952      H1956   0.992       .  S
O1954      H1955   0.992       .  S
C1957      C1959   1.534       .  S
C1957      C1961   1.544       .  S
C1957      C1960   1.546       .  S
C1957      C2585   1.549       .  S
C1958      C1962   1.535       .  S
C1958      C1964   1.549       .  S
C1958      C1963   1.538       .  S
C1958      C2600   1.541       .  S
C1959      C1967   1.377       .  A
C1959      C1962   1.389       .  A
C1960      C1971   1.388       .  A
C1960      C1963   1.424       .  A
C1961      C1975   1.377       .  A
C1961      C1964   1.400       .  A
C1962      C1965   1.388       .  A
C1963      C1969   1.370       .  A
C1964      C1972   1.387       .  A
C1965      N1966   1.349       .  A
C1965      H1978   1.077       .  S
N1966      C1967   1.344       .  A
N1966      C2576   1.432       .  S
C1967      H1968   1.082       .  S
C1969      N1970   1.344       .  A
C1969      H1979   1.082       .  S
N1970      C1971   1.355       .  A
N1970      N2016   1.400       .  S
C1971      H1977   1.082       .  S
C1972      N1973   1.354       .  A
C1972      H1974   1.081       .  S
N1973      C1975   1.349       .  A
N1973      C2564   1.437       .  S
C1975      H1976   1.082       .  S
C1980      C1982   1.536       .  S
C1980      C1983   1.550       .  S
C1980      C2549   1.548       .  S
C1981      C1987   1.537       .  S
C1981      C1986   1.540   1_655  S
C1981      C2513   1.532   1_655  S
C1982      C1990   1.382       .  A
C1982      C1985   1.389   1_565  A
C1983      C1994   1.380       .  A
C1984      C1998   1.381       .  A
C1984      C1987   1.384       .  A
C1985      C1988   1.384   1_645  A
C1986      C1992   1.377       .  A
C1987      C1995   1.372       .  A
C1988      N1989   1.346       .  A
C1988      H2001   1.082   1_565  S
N1989      C1990   1.343   1_455  A
N1989      C2525   1.428       .  S
C1990      H1991   1.077       .  S
C1992      N1993   1.344   1_455  A
C1992      H2002   1.082       .  S
C1994      H2000   1.082       .  S
C1995      N1996   1.361       .  A
C1995      H1997   1.080       .  S
N1996      C1998   1.364       .  A
N1996      C2540   1.457       .  S
C1998      H1999   1.076       .  S
C2003      C2005   1.541       .  S
C2003      C2007   1.525       .  S
C2003      C2489   1.536       .  S
C2004      C2008   1.551       .  S
C2004      C2010   1.539       .  S
C2004      C2501   1.549       .  S
C2005      C2013   1.371       .  A
C2005      C2008   1.396       .  A
C2006      C2017   1.378       .  A
C2006      C2009   1.429       .  A
C2007      C2021   1.376       .  A
C2007      C2010   1.387       .  A
C2008      C2011   1.381       .  A
C2009      C2015   1.383       .  A
C2010      C2018   1.387       .  A
C2011      N2012   1.365       .  A
C2011      H2024   1.077       .  S
N2012      C2013   1.354       .  A
N2012      C2465   1.451       .  S
C2013      H2014   1.076       .  S
C2015      N2016   1.349       .  A
C2015      H2025   1.082       .  S
N2016      C2017   1.346       .  A
C2017      H2023   1.082       .  S
C2018      N2019   1.351       .  A
C2018      H2020   1.076       .  S
N2019      C2021   1.350       .  A
N2019      C2477   1.443       .  S
C2021      H2022   1.081       .  S
C2026      C2028   1.559       .  S
C2026      C2429   1.562       .  S
C2027      C2033   1.530   1_655  S
C2027      C2453   1.546       .  S
C2028      C2036   1.387   1_455  A
C2028      C2031   1.379   1_455  A
C2029      C2040   1.372       .  A
C2030      C2044   1.405       .  A
C2030      C2033   1.390       .  A
C2031      C2034   1.373       .  A
C2032      C2038   1.386       .  A
C2033      C2041   1.373       .  A
C2034      N2035   1.349       .  A
C2034      H2047   1.083       .  S
N2035      C2036   1.356       .  A
N2035      C2441   1.430       .  S
C2036      H2037   1.078   1_655  S
C2038      H2048   1.082       .  S
N2039      C2040   1.347   1_545  A
C2040      H2046   1.083       .  S
C2041      N2042   1.346       .  A
C2041      H2043   1.074       .  S
N2042      C2044   1.361       .  A
N2042      C2420   1.461       .  S
C2044      H2045   1.073       .  S
O2049      C2064   1.252       .  A
O2049     Al2057   1.834       .  S
C2050      O2060   1.258       .  A
C2050      O2051   1.287       .  A
C2050      C2369   1.506       .  S
O2051     Al2053   2.020       .  S
O2052      C2054   1.254       .  A
O2052     Al2053   1.883       .  S
Al2053     O2061   1.916       .  S
Al2053     O2063   2.001       .  S
Al2053     O2062   1.783       .  S
C2054      O2067   1.265       .  A
C2054      C2405   1.498       .  S
O2055      C2065   1.254       .  A
O2055     Al2057   1.888       .  S
O2056      C2069   1.260       .  A
O2056     Al2066   1.880       .  S
Al2057     O2070   1.986       .  S
Al2057     O2067   1.950       .  S
Al2057     O2062   1.790       .  S
O2058      C2065   1.263       .  A
O2058     Al2066   1.921       .  S
O2059      C2068   1.258       .  A
O2059     Al2066   1.908       .  S
O2060     Al2066   1.861       .  S
O2061      C2068   1.254       .  A
O2062     Al2066   1.772       .  S
O2063      C2064   1.282       .  A
C2064      C2384   1.487       .  S
C2065      C2468   1.455       .  S
C2068      C2588   1.490       .  S
C2069      O2070   1.276       .  A
C2069      C2393   1.488       .  S
O2071      C2086   1.267       .  A
O2071     Al2079   1.858       .  S
C2072      O2082   1.255       .  A
C2072      O2073   1.278       .  A
C2072      C2345   1.503       .  S
O2073     Al2075   1.990       .  S
O2074      C2076   1.252       .  A
O2074     Al2075   1.899       .  S
Al2075     O2083   1.922       .  S
Al2075     O2085   1.998       .  S
Al2075     O2084   1.779       .  S
C2076      O2089   1.257       .  A
C2076      C2408   1.499       .  S
O2077      C2087   1.269       .  A
O2077     Al2079   1.904       .  S
O2078      C2091   1.250       .  A
O2078     Al2088   1.889       .  S
Al2079     O2092   1.972       .  S
Al2079     O2089   1.946       .  S
Al2079     O2084   1.797       .  S
O2080      C2087   1.272       .  A
O2080     Al2088   1.922       .  S
O2081      C2090   1.251       .  A
O2081     Al2088   1.878       .  S
O2082     Al2088   1.852       .  S
O2083      C2090   1.257       .  A
O2084     Al2088   1.769       .  S
O2085      C2086   1.289       .  A
C2086      C2360   1.481       .  S
C2087      C2561   1.465       .  S
C2090      C2504   1.479       .  S
C2091      O2092   1.266       .  A
C2091      C2396   1.484       .  S
O2093      C2108   1.282       .  A
O2093     Al2101   1.930       .  S
C2094      O2104   1.283       .  A
C2094      O2095   1.286       .  A
C2094      C2372   1.503       .  S
O2095     Al2097   1.955       .  S
O2096      C2098   1.243       .  A
O2096     Al2097   1.882       .  S
Al2097     O2105   1.918       .  S
Al2097     O2107   1.944       .  S
Al2097     O2106   1.775       .  S
C2098      O2111   1.262       .  A
C2098      C2333   1.509       .  S
O2099      C2109   1.264       .  A
O2099     Al2101   1.919       .  S
O2100      C2113   1.258       .  A
O2100     Al2110   1.896       .  S
Al2101     O2114   1.945       .  S
Al2101     O2111   1.966       .  S
Al2101     O2106   1.772       .  S
O2102      C2109   1.253       .  A
O2102     Al2110   1.845       .  S
O2103      C2112   1.245       .  A
O2103     Al2110   1.909       .  S
O2104     Al2110   1.960       .  S
O2105      C2112   1.249       .  A
O2106     Al2110   1.764       .  S
O2107      C2108   1.290       .  A
C2108      C2309   1.479       .  S
C2109      C2573   1.461       .  S
C2112      C2492   1.473       .  S
C2113      O2114   1.268       .  A
C2113      C2324   1.495       .  S
O2115      C2130   1.284       .  A
O2115     Al2123   1.925       .  S
C2116      O2126   1.282       .  A
C2116      O2117   1.284       .  A
C2116      C2348   1.509       .  S
O2117     Al2119   1.951       .  S
O2118      C2120   1.240       .  A
O2118     Al2119   1.864       .  S
Al2119     O2127   1.928       .  S
Al2119     O2129   1.939       .  S
Al2119     O2128   1.771       .  S
C2120      O2133   1.261       .  A
C2120      C2336   1.512       .  S
O2121      C2131   1.269       .  A
O2121     Al2123   1.927       .  S
O2122      C2135   1.253       .  A
O2122     Al2132   1.878       .  S
Al2123     O2136   1.962       .  S
Al2123     O2133   1.967       .  S
Al2123     O2128   1.774       .  S
O2124      C2131   1.257       .  A
O2124     Al2132   1.854       .  S
O2125      C2134   1.242       .  A
O2125     Al2132   1.890       .  S
O2126     Al2132   1.943       .  S
O2127      C2134   1.251       .  A
O2128     Al2132   1.754       .  S
O2129      C2130   1.290       .  A
C2130      C2297   1.474       .  S
C2131      C2480   1.460       .  S
C2134      C2597   1.482       .  S
C2135      O2136   1.267       .  A
C2135      C2321   1.498       .  S
O2137      C2152   1.281       .  A
O2137     Al2145   1.943       .  S
C2138      O2148   1.279       .  A
C2138      O2139   1.275       .  A
C2138      C2261   1.509       .  S
O2139     Al2141   1.943       .  S
O2140      C2142   1.249       .  A
O2140     Al2141   1.891       .  S
Al2141     O2149   1.961       .  S
Al2141     O2151   1.929       .  S
Al2141     O2150   1.788       .  S
C2142      O2155   1.261       .  A
C2142      C2273   1.489       .  S
O2143      C2153   1.266       .  A
O2143     Al2145   1.937       .  S
O2144      C2157   1.259       .  A
O2144     Al2154   1.893       .  S
Al2145     O2158   1.906       .  S
Al2145     O2155   1.942       .  S
Al2145     O2150   1.777       .  S
O2146      C2153   1.248       .  A
O2146     Al2154   1.828       .  S
O2147      C2156   1.247       .  A
O2147     Al2154   1.885       .  S
O2148     Al2154   1.962       .  S
O2149      C2156   1.259       .  A
O2150     Al2154   1.764       .  S
O2151      C2152   1.282       .  A
C2152      C2312   1.481       .  S
C2153      C2528   1.474       .  S
C2156      C2432   1.486       .  S
C2157      O2158   1.260       .  A
C2157      C2285   1.475       .  S
O2159      C2174   1.256       .  A
O2159     Al2167   1.857       .  S
C2160      O2170   1.269       .  A
C2160      O2161   1.287       .  A
C2160      C2249   1.484       .  S
O2161     Al2163   1.993       .  S
O2162      C2164   1.250       .  A
O2162     Al2163   1.861       .  S
Al2163     O2171   1.925       .  S
Al2163     O2173   1.952       .  S
Al2163     O2172   1.788       .  S
C2164      O2177   1.266       .  A
C2164      C2276   1.497       .  S
O2165      C2175   1.259       .  A
O2165     Al2167   1.934       .  S
O2166      C2179   1.270       .  A
O2166     Al2176   1.890       .  S
Al2167     O2180   1.977       .  S
Al2167     O2177   1.942       .  S
Al2167     O2172   1.781       .  S
O2168      C2175   1.249       .  A
O2168     Al2176   1.886       .  S
O2169      C2178   1.247       .  A
O2169     Al2176   1.867       .  S
O2170     Al2176   1.874       .  S
O2171      C2178   1.250       .  A
O2172     Al2176   1.767       .  S
O2173      C2174   1.272       .  A
C2174      C2300   1.474       .  S
C2175      C2417   1.464       .  S
C2178      C2516   1.474       .  S
C2179      O2180   1.283       .  A
C2179      C2288   1.475       .  S
O2181      C2196   1.271       .  A
O2181     Al2189   1.923       .  S
C2182      O2192   1.266       .  A
C2182      O2183   1.273       .  A
C2182      C2264   1.511       .  S
O2183     Al2185   1.969       .  S
O2184      C2186   1.257       .  A
O2184     Al2185   1.911       .  S
Al2185     O2193   1.974       .  S
Al2185     O2195   1.942       .  S
Al2185     O2194   1.785       .  S
C2186      O2199   1.262       .  A
C2186      C2225   1.497       .  S
O2187      C2197   1.268       .  A
O2187     Al2189   1.943       .  S
O2188      C2201   1.257       .  A
O2188     Al2198   1.900       .  S
Al2189     O2202   1.921       .  S
Al2189     O2199   1.926       .  S
Al2189     O2194   1.783       .  S
O2190      C2197   1.252       .  A
O2190     Al2198   1.837       .  S
O2191      C2200   1.255       .  A
O2191     Al2198   1.868       .  S
O2192     Al2198   1.937       .  S
O2193      C2200   1.268       .  A
O2194     Al2198   1.774       .  S
O2195      C2196   1.276       .  A
C2196      C2381   1.486       .  S
C2197      C2444   1.481       .  S
C2200      C2552   1.491       .  S
C2201      O2202   1.260       .  A
C2201      C2237   1.479       .  S
O2203      C2218   1.253       .  A
O2203     Al2211   1.850       .  S
C2204      O2214   1.260       .  A
C2204      O2205   1.285       .  A
C2204      C2252   1.490       .  S
O2205     Al2207   2.000       .  S
O2206      C2208   1.253       .  A
O2206     Al2207   1.867       .  S
Al2207     O2215   1.911       .  S
Al2207     O2217   1.973       .  S
Al2207     O2216   1.790       .  S
C2208      O2221   1.268       .  A
C2208      C2228   1.490       .  S
O2209      C2219   1.251       .  A
O2209     Al2211   1.901       .  S
O2210      C2223   1.262       .  A
O2210     Al2220   1.866       .  S
Al2211     O2224   1.988       .  S
Al2211     O2221   1.946       .  S
Al2211     O2216   1.781       .  S
O2212      C2219   1.260       .  A
O2212     Al2220   1.924       .  S
O2213      C2222   1.260       .  A
O2213     Al2220   1.917       .  S
O2214     Al2220   1.851       .  S
O2215      C2222   1.253       .  A
O2216     Al2220   1.770       .  S
O2217      C2218   1.273       .  A
C2218      C2357   1.485       .  S
C2219      C2537   1.467       .  S
C2222      C2456   1.488       .  S
C2223      O2224   1.279       .  A
C2223      C2240   1.484       .  S
C2225      C2226   1.404       .  A
C2225      C2230   1.418       .  A
C2226      C2227   1.405       .  A
C2226      H2231   1.083       .  S
C2227      C2228   1.415       .  A
C2227      O2232   1.372       .  S
C2228      C2229   1.402       .  A
C2229      C2230   1.406       .  A
C2229      H2233   1.084       .  S
C2230      O2234   1.371       .  S
O2232      H2236   0.992       .  S
O2234      H2235   0.991       .  S
C2237      C2238   1.405       .  A
C2237      C2242   1.405       .  A
C2238      H2243   1.083       .  S
C2239      C2240   1.410       .  A
C2239      O2244   1.369       .  S
C2240      C2241   1.406       .  A
C2241      H2245   1.084       .  S
C2242      O2246   1.372       .  S
O2244      H2248   0.991       .  S
O2246      H2247   0.992       .  S
C2249      C2250   1.396       .  A
C2249      C2254   1.414       .  A
C2250      C2251   1.402   1_455  A
C2250      H2255   1.084       .  S
C2251      C2252   1.419       .  A
C2251      O2256   1.370       .  S
C2252      C2253   1.401       .  A
C2253      C2254   1.407   1_655  A
C2253      H2257   1.083       .  S
C2254      O2258   1.369       .  S
O2256      H2260   0.992       .  S
O2258      H2259   0.991       .  S
C2261      C2262   1.411       .  A
C2261      C2266   1.408   1_455  A
C2262      C2263   1.417       .  A
C2262      H2267   1.082       .  S
C2263      C2264   1.410   1_455  A
C2263      O2268   1.371       .  S
C2264      C2265   1.413       .  A
C2265      C2266   1.419       .  A
C2265      H2269   1.083       .  S
C2266      O2270   1.370       .  S
O2268      H2272   0.991       .  S
O2270      H2271   0.991       .  S
C2273      C2274   1.411       .  A
C2273      C2278   1.405       .  A
C2274      C2275   1.403       .  A
C2274      H2279   1.084       .  S
C2275      C2276   1.407       .  A
C2275      O2280   1.371       .  S
C2276      C2277   1.416       .  A
C2277      C2278   1.405       .  A
C2277      H2281   1.083       .  S
C2278      O2282   1.372       .  S
O2280      H2284   0.992       .  S
O2282      H2283   0.992       .  S
C2285      C2286   1.405       .  A
C2285      C2290   1.405       .  A
C2286      H2291   1.084       .  S
C2287      C2288   1.408       .  A
C2287      O2292   1.371       .  S
C2288      C2289   1.402       .  A
C2289      H2293   1.078       .  S
C2290      O2294   1.372       .  S
O2292      H2296   0.992       .  S
O2294      H2295   0.992       .  S
C2297      C2298   1.406       .  A
C2297      C2302   1.405       .  A
C2298      C2299   1.404       .  A
C2298      H2303   1.084       .  S
C2299      C2300   1.407       .  A
C2299      O2304   1.372       .  S
C2300      C2301   1.407       .  A
C2301      C2302   1.404       .  A
C2301      H2305   1.084       .  S
C2302      O2306   1.372       .  S
O2304      H2308   0.991       .  S
O2306      H2307   0.992       .  S
C2309      C2310   1.406       .  A
C2309      C2314   1.409       .  A
C2310      C2311   1.406       .  A
C2310      H2315   1.084       .  S
C2311      C2312   1.407       .  A
C2311      O2316   1.372       .  S
C2312      C2313   1.406       .  A
C2313      C2314   1.407       .  A
C2313      H2317   1.084       .  S
C2314      O2318   1.371       .  S
O2316      H2320   0.992       .  S
O2318      H2319   0.991       .  S
C2321      C2322   1.409       .  A
C2321      C2326   1.413       .  A
C2322      C2323   1.405       .  A
C2322      H2327   1.084       .  S
C2323      C2324   1.410       .  A
C2323      O2328   1.371       .  S
C2324      C2325   1.409       .  A
C2325      C2326   1.411       .  A
C2325      H2329   1.083       .  S
C2326      O2330   1.371       .  S
O2328      H2332   0.991       .  S
O2330      H2331   0.992       .  S
C2333      C2334   1.402       .  A
C2333      C2338   1.423       .  A
C2334      H2339   1.083       .  S
C2335      C2336   1.425       .  A
C2335      O2340   1.371       .  S
C2336      C2337   1.404       .  A
C2337      H2341   1.083       .  S
C2338      O2342   1.372       .  S
O2340      H2344   0.992       .  S
O2342      H2343   0.992       .  S
C2345      C2346   1.412       .  A
C2345      C2350   1.414       .  A
C2346      C2347   1.424       .  A
C2346      H2351   1.083       .  S
C2347      C2348   1.417       .  A
C2347      O2352   1.370       .  S
C2348      C2349   1.406       .  A
C2349      C2350   1.398       .  A
C2349      H2353   1.083       .  S
C2350      O2354   1.374       .  S
O2352      H2356   0.992       .  S
O2354      H2355   0.992       .  S
C2357      C2358   1.402       .  A
C2357      C2362   1.415       .  A
C2358      C2359   1.409       .  A
C2358      H2363   1.084       .  S
C2359      C2360   1.414       .  A
C2359      O2364   1.372       .  S
C2360      C2361   1.401       .  A
C2361      C2362   1.406       .  A
C2361      H2365   1.084       .  S
C2362      O2366   1.374       .  S
O2364      H2368   0.991       .  S
O2366      H2367   0.992       .  S
C2369      C2370   1.412       .  A
C2369      C2374   1.411       .  A
C2370      C2371   1.406       .  A
C2370      H2375   1.083       .  S
C2371      C2372   1.405       .  A
C2371      O2376   1.370       .  S
C2372      C2373   1.414       .  A
C2373      C2374   1.421       .  A
C2373      H2377   1.083       .  S
C2374      O2378   1.371       .  S
O2376      H2380   0.991       .  S
O2378      H2379   0.991       .  S
C2381      C2382   1.408       .  A
C2381      C2386   1.406       .  A
C2382      C2383   1.412       .  A
C2382      H2387   1.084       .  S
C2383      C2384   1.409       .  A
C2383      O2388   1.370       .  S
C2384      C2385   1.411       .  A
C2385      C2386   1.405       .  A
C2385      H2389   1.084       .  S
C2386      O2390   1.372       .  S
O2388      H2392   0.991       .  S
O2390      H2391   0.991       .  S
C2393      C2394   1.402       .  A
C2393      C2398   1.411       .  A
C2394      C2395   1.406       .  A
C2394      H2399   1.079       .  S
C2395      C2396   1.412       .  A
C2395      O2400   1.371       .  S
C2396      C2397   1.402       .  A
C2397      C2398   1.404       .  A
C2397      H2401   1.084       .  S
C2398      O2402   1.371       .  S
O2400      H2404   0.991       .  S
O2402      H2403   0.991       .  S
C2405      C2406   1.408       .  A
C2405      C2410   1.414       .  A
C2406      H2411   1.083       .  S
C2407      C2408   1.415       .  A
C2407      O2412   1.372       .  S
C2408      C2409   1.403       .  A
C2409      H2413   1.084       .  S
C2410      O2414   1.372       .  S
O2412      H2416   0.992       .  S
O2414      H2415   0.992       .  S
C2417      C2418   1.391       .  A
C2417      C2422   1.403       .  A
C2418      C2419   1.393       .  A
C2418      H2423   1.076       .  S
C2419      C2420   1.425       .  A
C2419      O2424   1.368       .  S
C2420      C2421   1.414       .  A
C2421      C2422   1.406       .  A
C2421      H2425   1.080       .  S
C2422      O2426   1.370       .  S
O2424      H2428   0.992       .  S
O2426      H2427   0.991       .  S
C2429      C2430   1.401       .  A
C2429      C2434   1.416       .  A
C2430      C2431   1.402       .  A
C2430      H2435   1.077       .  S
C2431      C2432   1.411       .  A
C2431      O2436   1.371       .  S
C2432      C2433   1.404       .  A
C2433      C2434   1.412       .  A
C2433      H2437   1.083       .  S
C2434      O2438   1.372       .  S
O2436      H2440   0.991       .  S
O2438      H2439   0.991   1_556  S
C2441      C2442   1.393       .  A
C2441      C2446   1.408       .  A
C2442      C2443   1.381       .  A
C2442      H2447   1.084       .  S
C2443      C2444   1.417       .  A
C2443      O2448   1.370       .  S
C2444      C2445   1.406       .  A
C2445      C2446   1.406       .  A
C2445      H2449   1.083       .  S
C2446      O2450   1.371       .  S
O2448      H2452   0.992       .  S
O2450      H2451   0.992       .  S
C2453      C2454   1.411       .  A
C2453      C2458   1.430       .  A
C2454      C2455   1.420       .  A
C2454      H2459   1.082       .  S
C2455      C2456   1.415       .  A
C2455      O2460   1.370       .  S
C2456      C2457   1.391       .  A
C2457      C2458   1.389       .  A
C2457      H2461   1.085       .  S
C2458      O2462   1.376       .  S
O2460      H2464   0.991       .  S
C2465      C2466   1.406       .  A
C2465      C2470   1.422       .  A
C2466      C2467   1.392       .  A
C2466      H2471   1.082       .  S
C2467      C2468   1.398       .  A
C2467      O2472   1.369       .  S
C2468      C2469   1.395       .  A
C2469      C2470   1.402       .  A
C2469      H2473   1.083       .  S
C2470      O2474   1.371       .  S
O2472      H2476   0.991       .  S
O2474      H2475   0.992       .  S
C2477      C2478   1.401       .  A
C2477      C2482   1.420       .  A
C2478      C2479   1.385       .  A
C2478      H2483   1.082       .  S
C2479      C2480   1.406       .  A
C2479      O2484   1.373       .  S
C2480      C2481   1.397       .  A
C2481      C2482   1.406       .  A
C2481      H2485   1.084       .  S
C2482      O2486   1.370       .  S
O2484      H2488   0.992       .  S
O2486      H2487   0.992       .  S
C2489      C2490   1.416       .  A
C2489      C2494   1.421       .  A
C2490      C2491   1.412       .  A
C2490      H2495   1.081       .  S
C2491      C2492   1.406       .  A
C2491      O2496   1.371       .  S
C2492      C2493   1.391       .  A
C2493      C2494   1.388       .  A
C2493      H2497   1.080       .  S
C2494      O2498   1.372       .  S
O2496      H2500   0.992       .  S
O2498      H2499   0.992       .  S
C2501      C2502   1.412       .  A
C2501      C2506   1.412       .  A
C2502      C2503   1.406       .  A
C2502      H2507   1.084       .  S
C2503      C2504   1.406       .  A
C2503      O2508   1.371       .  S
C2504      C2505   1.403       .  A
C2505      C2506   1.405       .  A
C2505      H2509   1.083       .  S
C2506      O2510   1.368       .  S
O2508      H2512   0.991       .  S
O2510      H2511   0.992       .  S
C2513      C2514   1.416       .  A
C2513      C2518   1.419       .  A
C2514      C2515   1.413       .  A
C2514      H2519   1.081       .  S
C2515      C2516   1.406       .  A
C2515      O2520   1.371       .  S
C2516      C2517   1.395       .  A
C2517      C2518   1.387       .  A
C2517      H2521   1.085       .  S
C2518      O2522   1.376   1_455  S
O2520      H2524   0.991       .  S
O2522      H2523   0.993       .  S
C2525      C2526   1.391       .  A
C2525      C2530   1.409       .  A
C2526      C2527   1.385       .  A
C2526      H2531   1.084   1_455  S
C2527      C2528   1.416       .  A
C2527      O2532   1.370       .  S
C2528      C2529   1.404       .  A
C2529      C2530   1.405       .  A
C2529      H2533   1.083       .  S
C2530      O2534   1.371       .  S
O2532      H2536   0.992       .  S
O2534      H2535   0.992       .  S
C2537      C2538   1.393       .  A
C2537      C2542   1.401       .  A
C2538      C2539   1.396       .  A
C2538      H2543   1.080       .  S
C2539      C2540   1.419       .  A
C2539      O2544   1.371       .  S
C2540      C2541   1.416       .  A
C2541      C2542   1.403       .  A
C2541      H2545   1.082       .  S
C2542      O2546   1.369       .  S
O2544      H2548   0.992       .  S
O2546      H2547   0.992       .  S
C2549      C2550   1.410       .  A
C2549      C2554   1.425       .  A
C2550      C2551   1.394       .  A
C2550      H2555   1.070       .  S
C2551      C2552   1.404       .  A
C2551      O2556   1.375       .  S
C2552      C2553   1.405       .  A
C2553      C2554   1.419       .  A
C2553      H2557   1.083       .  S
C2554      O2558   1.372       .  S
O2556      H2560   0.993       .  S
O2558      H2559   0.992       .  S
C2561      C2562   1.400       .  A
C2561      C2566   1.404       .  A
C2562      C2563   1.389       .  A
C2562      H2567   1.082       .  S
C2563      C2564   1.410       .  A
C2563      O2568   1.372       .  S
C2564      C2565   1.408       .  A
C2565      C2566   1.404       .  A
C2565      H2569   1.083       .  S
C2566      O2570   1.371       .  S
O2568      H2572   0.992       .  S
O2570      H2571   0.992       .  S
C2573      C2574   1.402       .  A
C2573      C2578   1.404       .  A
C2574      C2575   1.385       .  A
C2574      H2579   1.081       .  S
C2575      C2576   1.403       .  A
C2575      O2580   1.372       .  S
C2576      C2577   1.408       .  A
C2577      C2578   1.402       .  A
C2577      H2581   1.083       .  S
C2578      O2582   1.371       .  S
O2580      H2584   0.992       .  S
O2582      H2583   0.991       .  S
C2585      C2586   1.416       .  A
C2585      C2590   1.420       .  A
C2586      C2587   1.390       .  A
C2586      H2591   1.078       .  S
C2587      C2588   1.400       .  A
C2587      O2592   1.375       .  S
C2588      C2589   1.410       .  A
C2589      C2590   1.420       .  A
C2589      H2593   1.083       .  S
C2590      O2594   1.369       .  S
O2592      H2596   0.992       .  S
O2594      H2595   0.991       .  S
C2597      C2598   1.404       .  A
C2597      C2602   1.413       .  A
C2598      C2599   1.400       .  A
C2598      H2603   1.083       .  S
C2599      C2600   1.412       .  A
C2599      O2604   1.370       .  S
C2600      C2601   1.404       .  A
C2601      C2602   1.403       .  A
C2601      H2605   1.083       .  S
C2602      O2606   1.373       .  S
O2604      H2608   0.991       .  S
O2606      H2607   0.992       .  S
