geometry optimzed in LAMMPS
_audit_creation_date              2020-12-01 
_audit_creation_method            'lammps2cif' 
_symmetry_space_group_name_H-M    'P1' 
_symmetry_Int_Tables_number       1 
_symmetry_cell_setting            triclinic 
loop_ 
_symmetry_equiv_pos_as_xyz 
  x,y,z 
_cell_length_a                    28.27122177 
_cell_length_b                    40.876825640744215 
_cell_length_c                    55.960897649826876 
_cell_angle_alpha                 90.05917164760447 
_cell_angle_beta                  96.8239633718949 
_cell_angle_gamma                 89.93456121808345 
loop_ 
_atom_site_label 
_atom_site_type_symbol 
_atom_site_fract_x 
_atom_site_fract_y 
_atom_site_fract_z 
_atom_site_charge 
O1          O  0.69967878  0.64746689  0.08914672    -0.57700
C2          C  0.55515069  0.66487849  0.07385825     0.75000
O3          O  0.63705928  0.67921251  0.01578226    -0.58800
C4          C  0.73512780  0.64131684  0.07793329     0.74900
C5          C  0.60642983  0.58182765  0.03714305     0.77300
Cd6        Cd  0.63984661  0.64596806  0.05335867     1.37500
O7          O  0.59373413  0.65929937  0.08722197    -0.57700
O8          O  0.61734799  0.58876170  0.05915394    -0.56500
C9          C  0.65816285  0.70355370  0.02632993     0.77300
O10         O  0.61650800  0.60329452  0.02217755    -0.58800
O11         O  0.55694522  0.66355914  0.05142878    -0.57300
O12         O  0.72585410  0.63416479  0.05580792    -0.57300
O13         O  0.66950568  0.70103823  0.04875731    -0.56500
O14         O  0.10634800  0.67889920  0.14582323    -0.57700
C15         C  0.24664033  0.69483804  0.14428536     0.75000
O16         O  0.19422274  0.77225011  0.17802338    -0.58800
C17         C  0.07025167  0.69571320  0.14946251     0.74900
C18         C  0.17645107  0.68855856  0.21432164     0.77300
Cd19       Cd  0.16602410  0.71598682  0.16690298     1.37500
O20         O  0.20765841  0.70238083  0.13203986    -0.57700
O21         O  0.17685492  0.67168964  0.19538639    -0.56500
C22         C  0.18329470  0.78344449  0.15694597     0.77300
O23         O  0.17088682  0.71923044  0.21156792    -0.58800
O24         O  0.24711612  0.69485862  0.16688790    -0.57300
O25         O  0.07842539  0.72203017  0.16119663    -0.57300
O26         O  0.16112079  0.76430159  0.14181980    -0.56500
C27         C  0.73476863  0.97692044  0.92366485     0.30100
C28         C  0.72957274  0.91637216  0.94414309     0.30100
C29         C  0.68915255  0.97045947  0.93575690    -0.06100
C30         C  0.73645576  0.94741934  0.90672503    -0.06800
C31         C  0.77417262  0.96868314  0.94416385    -0.06700
C32         C  0.68668245  0.93904597  0.94566436    -0.06100
C33         C  0.73496224  0.91671057  0.91717655    -0.06800
C34         C  0.77210042  0.93779618  0.95443225    -0.06700
C35         C  0.65499550  0.94021978  0.96237494    -0.32100
N36         N  0.63830775  0.97110000  0.96374885     0.14400
C37         C  0.66014179  0.98998188  0.94833381    -0.32100
H38         H  0.65839116  0.01640187  0.94805379     0.16300
C39         C  0.73956639  0.89407759  0.89935598    -0.31100
N40         N  0.74089328  0.91006237  0.87823020     0.13100
C41         C  0.73926954  0.94274428  0.88252650    -0.31100
C42         C  0.81213763  0.93471506  0.97101704    -0.31400
N43         N  0.83731538  0.96312068  0.97156063     0.13600
H44         H  0.82238329  0.91338844  0.98181207     0.16300
C45         C  0.81430460  0.98391605  0.95516603    -0.31400
H46         H  0.82651883  0.00811933  0.95107262     0.16300
H47         H  0.73985654  0.96168109  0.86904119     0.16300
H48         H  0.64727800  0.92020530  0.97392291     0.16300
H49         H  0.74103901  0.86779241  0.90131213     0.16300
O50         O  0.37860828  0.33501518  0.92993071    -0.57700
C51         C  0.23975352  0.34420662  0.94046712     0.75000
O52         O  0.30514408  0.30728671  0.99935797    -0.58800
C53         C  0.41556955  0.32202706  0.94117047     0.74900
C54         C  0.37810559  0.39672471  0.98749394     0.77300
Cd55       Cd  0.33479772  0.33786984  0.96577866     1.37500
O56         O  0.27422107  0.33317398  0.93030328    -0.57700
O57         O  0.35474174  0.39695045  0.96675238    -0.56500
C58         C  0.31671580  0.27934663  0.99206429     0.77300
O59         O  0.37700292  0.37028628  0.99920298    -0.58800
O60         O  0.24993679  0.35462003  0.96177688    -0.57300
O61         O  0.41378564  0.31540337  0.96311251    -0.57300
O62         O  0.33765450  0.27884502  0.97332952    -0.56500
O63         O  0.86870693  0.29095736  0.88309221    -0.57700
C64         C  0.72500842  0.29274420  0.87031271     0.75000
O65         O  0.81524046  0.26943804  0.80680461    -0.58800
C66         C  0.90306102  0.29151382  0.87045056     0.74900
C67         C  0.79820957  0.19998212  0.85650398     0.77300
Cd68       Cd  0.80889633  0.27004985  0.85047971     1.37500
O69         O  0.76532580  0.29345073  0.88291627    -0.57700
O70         O  0.83036159  0.21638669  0.86870203    -0.56500
C71         C  0.80483833  0.29945266  0.80359756     0.77300
O72         O  0.77275721  0.21538601  0.84014527    -0.58800
O73         O  0.72478645  0.28379308  0.84870603    -0.57300
O74         O  0.89382405  0.28209862  0.84885604    -0.57300
O75         O  0.79653897  0.31547320  0.82203824    -0.56500
C76         C  0.26696146  0.06612845  0.07674664     0.30100
C77         C  0.27192390  0.00623582  0.09896427     0.30100
C78         C  0.30801015  0.04363998  0.07132681    -0.06100
C79         C  0.27483858  0.06677203  0.10456475    -0.06800
C80         C  0.22338198  0.04401734  0.07127722    -0.06700
C81         C  0.31090209  0.01307215  0.08242415    -0.06100
C82         C  0.27713804  0.03623642  0.11590675    -0.06800
C83         C  0.22601177  0.01383607  0.08252955    -0.06700
C84         C  0.35203591  0.99844600  0.07630716    -0.32100
N85         N  0.37331026  0.01914255  0.06173658     0.14400
C86         C  0.34670539  0.04679380  0.05891169    -0.32100
H87         H  0.35490710  0.06790591  0.04851936     0.16300
C88         C  0.29297001  0.04155104  0.13993421    -0.31100
N89         N  0.29953524  0.07416139  0.14361549     0.13100
C90         C  0.29044357  0.08940729  0.12203260    -0.31100
C91         C  0.18448154  0.99739730  0.07507625    -0.31400
N92         N  0.15631728  0.01686260  0.05965395     0.13600
H93         H  0.17600682  0.97277622  0.08023114     0.16300
C94         C  0.18002181  0.04546989  0.05723310    -0.31400
H95         H  0.16670882  0.06607766  0.04630373     0.16300
H96         H  0.29785600  0.11500141  0.11927421     0.16300
H97         H  0.36630552  0.97503198  0.08261580     0.16300
H98         H  0.30017024  0.02281068  0.15376840     0.16300
O99         O  0.81918771  0.14463953  0.42757419    -0.57700
C100        C  0.96266801  0.15693149  0.44175695     0.75000
O101        O  0.86415207  0.17411215  0.49987046    -0.58800
C102        C  0.78403495  0.13614741  0.43821364     0.74900
C103        C  0.91440140  0.08097250  0.48324505     0.77300
Cd104      Cd  0.87819936  0.14239141  0.46356487     1.37500
O105        O  0.92539150  0.14616044  0.42946327    -0.57700
O106        O  0.89868036  0.08457463  0.46128340    -0.56500
C107        C  0.85698191  0.20103805  0.48874771     0.77300
O108        O  0.90890790  0.10505618  0.49696527    -0.58800
O109        O  0.95978669  0.16260157  0.46377165    -0.57300
O110        O  0.79332160  0.12748830  0.46000280    -0.57300
O111        O  0.86174038  0.20077492  0.46655709    -0.56500
O112        O  0.41348590  0.18096344  0.37523323    -0.57700
C113        C  0.26879498  0.19587625  0.37032473     0.75000
O114        O  0.34070883  0.27607153  0.34306940    -0.58800
C115        C  0.44994053  0.19648004  0.37044834     0.74900
C116        C  0.34693855  0.18711462  0.30471469     0.77300
Cd117      Cd  0.35439586  0.21676340  0.35207295     1.37500
O118        O  0.30943616  0.18926226  0.38141098    -0.57700
O119        O  0.34280358  0.17102386  0.32362873    -0.56500
C120        C  0.34103626  0.28472247  0.36488594     0.77300
O121        O  0.35391415  0.21763665  0.30743267    -0.58800
O122        O  0.26827363  0.21071771  0.35046177    -0.57300
O123        O  0.44218818  0.22208047  0.35786093    -0.57300
O124        O  0.35061359  0.26251723  0.38045371    -0.56500
C125        C  0.78640741  0.47272813  0.59476104     0.30100
C126        C  0.79121139  0.41221345  0.57383529     0.30100
C127        C  0.83320557  0.46532079  0.58387922    -0.06100
C128        C  0.78164011  0.44307243  0.61121858    -0.06800
C129        C  0.74895888  0.46556760  0.57330805    -0.06700
C130        C  0.83578488  0.43402929  0.57393680    -0.06100
C131        C  0.78488201  0.41217835  0.60087316    -0.06800
C132        C  0.75088749  0.43496917  0.56279836    -0.06700
C133        C  0.87517194  0.43317353  0.56176403    -0.32100
N134        N  0.89473887  0.46344159  0.56198431     0.14400
C135        C  0.86885444  0.48339003  0.57499893    -0.32100
H136        H  0.87299214  0.50966208  0.57590545     0.16300
C137        C  0.79172096  0.39028703  0.61986015    -0.31100
N138        N  0.78922886  0.40664392  0.64081357     0.13100
C139        C  0.78361489  0.43894931  0.63575048    -0.31100
C140        C  0.71376393  0.43359698  0.54432065    -0.31400
N141        N  0.68982691  0.46265832  0.54336820     0.13600
H142        H  0.70496757  0.41296323  0.53253251     0.16300
C143        C  0.71154966  0.48227639  0.56096970    -0.31400
H144        H  0.70019923  0.50671175  0.56502162     0.16300
H145        H  0.78390742  0.45820814  0.64906755     0.16300
H146        H  0.88719504  0.41232064  0.55225849     0.16300
H147        H  0.80023220  0.36459950  0.61893375     0.16300
O148        O  0.12205672  0.83957109  0.59254348    -0.57700
C149        C  0.26453038  0.83389203  0.58910328     0.75000
O150        O  0.19596424  0.80882326  0.52238128    -0.58800
C151        C  0.09250991  0.81763151  0.58484468     0.74900
C152        C  0.12872106  0.89053746  0.53823095     0.77300
Cd153      Cd  0.17292468  0.83263750  0.56039298     1.37500
O154        O  0.23012543  0.81689096  0.59460551    -0.57700
O155        O  0.15699081  0.89216109  0.55754086    -0.56500
C156        C  0.19378062  0.77959173  0.52980584     0.77300
O157        O  0.12489137  0.86282491  0.52804689    -0.58800
O158        O  0.25574919  0.85286419  0.57121976    -0.57300
O159        O  0.10223303  0.80122590  0.56690789    -0.57300
O160        O  0.18078360  0.77573592  0.55044596    -0.56500
O161        O  0.74053860  0.78350240  0.63884882    -0.57700
C162        C  0.60315710  0.78329998  0.65609983     0.75000
O163        O  0.73189112  0.70671293  0.68242585    -0.58800
C164        C  0.78111373  0.78492018  0.65114524     0.74900
C165        C  0.70943529  0.79313490  0.71923644     0.77300
Cd166      Cd  0.69949878  0.76264688  0.67260115     1.37500
O167        O  0.63805702  0.79217249  0.64536751    -0.57700
O168        O  0.71338846  0.80872311  0.70004406    -0.56500
C169        C  0.71214549  0.69368003  0.66326637     0.77300
O170        O  0.70075829  0.76274005  0.71702304    -0.58800
O171        O  0.61294580  0.76491557  0.67422087    -0.57300
O172        O  0.78290029  0.77754911  0.67314670    -0.57300
O173        O  0.68388960  0.71170010  0.64992812    -0.56500
C174        C  0.25570412  0.57085145  0.44227885     0.30100
C175        C  0.25108052  0.50969787  0.42166555     0.30100
C176        C  0.21724812  0.54786045  0.44979660    -0.06100
C177        C  0.24591807  0.56979514  0.41466794    -0.06800
C178        C  0.30145084  0.54980097  0.44706386    -0.06700
C179        C  0.21411385  0.51676982  0.43939420    -0.06100
C180        C  0.24296367  0.53887534  0.40416799    -0.06800
C181        C  0.29812076  0.51874515  0.43678844    -0.06700
C182        C  0.17604697  0.50158191  0.44829430    -0.32100
N183        N  0.15779321  0.52201906  0.46416720     0.14400
C184        C  0.18265542  0.55042515  0.46498634    -0.32100
H185        H  0.17677313  0.57128713  0.47619342     0.16300
C186        C  0.23151509  0.54343941  0.37970916    -0.31100
N187        N  0.22814144  0.57612268  0.37517512     0.13100
C188        C  0.23727239  0.59231062  0.39641017    -0.31100
C189        C  0.34060091  0.50283634  0.44309724    -0.31400
N190        N  0.37079312  0.52336082  0.45647512     0.13600
H191        H  0.34833674  0.47784654  0.43857768     0.16300
C192        C  0.34765035  0.55232440  0.45845538    -0.31400
H193        H  0.36427112  0.57386327  0.46685823     0.16300
H194        H  0.23802338  0.61865695  0.39837854     0.16300
H195        H  0.16149728  0.47781378  0.44325292     0.16300
H196        H  0.22520202  0.52440429  0.36627827     0.16300
C197        C  0.22793667  0.69356123  0.51473084    -0.10700
C198        C  0.22944336  0.69530226  0.48981859     0.06400
C199        C  0.21949557  0.72523425  0.47789790    -0.09500
C200        C  0.20848647  0.75305078  0.49082414    -0.11100
C201        C  0.20632631  0.75103872  0.51571782    -0.00900
C202        C  0.21619429  0.72104841  0.52750486    -0.10000
C203        C  0.23931993  0.66536232  0.47642975     0.06500
H204        H  0.22041989  0.72705586  0.45866120     0.08400
H205        H  0.20094966  0.77591665  0.48134568     0.11800
H206        H  0.21495830  0.71881183  0.54670660     0.12100
H207        H  0.23478652  0.67066525  0.52426153     0.08400
C208        C  0.27692986  0.64457355  0.48515742    -0.10700
C209        C  0.28310688  0.61445309  0.47413014    -0.10000
C210        C  0.25291416  0.60479498  0.45352820    -0.00900
C211        C  0.21433982  0.62549388  0.44539711    -0.11100
C212        C  0.20815159  0.65561953  0.45638282    -0.09500
H213        H  0.30059029  0.65114550  0.50109809     0.08400
H214        H  0.30943328  0.59822492  0.48299413     0.12100
H215        H  0.18779518  0.61789455  0.43092032     0.11800
H216        H  0.17768291  0.67061061  0.44992495     0.08400
C217        C  0.37251249  0.79431816  0.62338739    -0.10700
C218        C  0.40773783  0.81836235  0.62241233     0.06400
C219        C  0.39457905  0.84868530  0.61167775    -0.09500
C220        C  0.34760249  0.85435980  0.60143096    -0.11100
C221        C  0.31285452  0.82997719  0.60203949    -0.00900
C222        C  0.32560160  0.80015196  0.61347436    -0.10000
C223        C  0.45817962  0.81110155  0.63174259     0.06500
H224        H  0.42073091  0.86788521  0.61098098     0.08400
H225        H  0.33856870  0.87759401  0.59278327     0.11800
H226        H  0.29966854  0.78072263  0.61386561     0.12100
H227        H  0.38150500  0.77052035  0.63110283     0.08400
C228        C  0.46911953  0.79273682  0.65291727    -0.10700
C229        C  0.51619966  0.78406692  0.66089450    -0.10000
C230        C  0.55353646  0.79355507  0.64793121    -0.00900
C231        C  0.54281872  0.81244645  0.62701142    -0.11100
C232        C  0.49564644  0.82112157  0.61899863    -0.09500
H233        H  0.44124747  0.78501927  0.66332099     0.08400
H234        H  0.52331270  0.76968272  0.67718782     0.12100
H235        H  0.57081400  0.82011146  0.61662457     0.11800
H236        H  0.48838256  0.83489995  0.60246010     0.08400
C237        C  0.90853009  0.80811370  0.64620709    -0.10700
C238        C  0.91152885  0.80350030  0.62156930     0.06400
C239        C  0.87026679  0.79469574  0.60635820    -0.09500
C240        C  0.82709894  0.78994575  0.61577338    -0.11100
C241        C  0.82470563  0.79357176  0.64055028    -0.00900
C242        C  0.86565314  0.80305211  0.65560925    -0.10000
C243        C  0.95803861  0.80692750  0.61212293     0.06500
H244        H  0.87146523  0.79131241  0.58726092     0.08400
H245        H  0.79603464  0.78240372  0.60383022     0.11800
H246        H  0.86475503  0.80596807  0.67478614     0.12100
H247        H  0.93978985  0.81455402  0.65840553     0.08400
C248        C  0.98936328  0.83223842  0.62044407    -0.10700
C249        C  0.03385286  0.83495060  0.61222068    -0.10000
C250        C  0.04777710  0.81257909  0.59536448    -0.00900
C251        C  0.01670027  0.78710463  0.58711408    -0.11100
C252        C  0.97221430  0.78430396  0.59543320    -0.09500
H253        H  0.97918068  0.85024123  0.63307611     0.08400
H254        H  0.05687824  0.85507159  0.61863049     0.12100
H255        H  0.02653279  0.76959031  0.57406006     0.11800
H256        H  0.94911066  0.76423113  0.58900274     0.08400
C257        C  0.97858122  0.46373925  0.51463514    -0.10700
C258        C  0.00745709  0.49088011  0.52136239     0.06400
C259        C  0.99802080  0.50950294  0.54141289    -0.09500
C260        C  0.96101613  0.50065086  0.55473632    -0.11100
C261        C  0.93248256  0.47315588  0.54815804    -0.00900
C262        C  0.94151292  0.45509093  0.52773157    -0.10000
C263        C  0.04718256  0.49936006  0.50733950     0.06500
H264        H  0.01988515  0.53049113  0.54706843     0.08400
H265        H  0.95527003  0.51498605  0.57040286     0.11800
H266        H  0.91961562  0.43441938  0.52153321     0.12100
H267        H  0.98429306  0.44935298  0.49894808     0.08400
C268        C  0.07667180  0.47461863  0.49981583    -0.10700
C269        C  0.11268192  0.48206025  0.48563659    -0.10000
C270        C  0.12013358  0.51443432  0.47858645    -0.00900
C271        C  0.09105679  0.53931504  0.48641451    -0.11100
C272        C  0.05501912  0.53185081  0.50067913    -0.09500
H273        H  0.07201706  0.44943044  0.50503601     0.08400
H274        H  0.13515537  0.46246741  0.48045220     0.12100
H275        H  0.09560167  0.56445995  0.48118139     0.11800
H276        H  0.03254497  0.55136559  0.50601859     0.08400
C277        C  0.59115660  0.51257560  0.51034386    -0.10700
C278        C  0.55800880  0.48837485  0.50200966     0.06400
C279        C  0.57055252  0.45531981  0.50590117    -0.09500
C280        C  0.61445949  0.44675193  0.51870742    -0.11100
C281        C  0.64688104  0.47104416  0.52786693    -0.00900
C282        C  0.63504832  0.50403741  0.52298595    -0.10000
C283        C  0.51011179  0.49771049  0.48993146     0.06500
H284        H  0.54567303  0.43609219  0.49981468     0.08400
H285        H  0.62213310  0.42114210  0.52224586     0.11800
H286        H  0.65953644  0.52340877  0.52915524     0.12100
H287        H  0.58304886  0.53821939  0.50715416     0.08400
C288        C  0.48477516  0.52379829  0.49879306    -0.10700
C289        C  0.43945393  0.53236418  0.48775055    -0.10000
C290        C  0.41832544  0.51520651  0.46742684    -0.00900
C291        C  0.44393091  0.48922226  0.45849429    -0.11100
C292        C  0.48911372  0.48051049  0.46966513    -0.09500
H293        H  0.49960956  0.53718702  0.51464157     0.08400
H294        H  0.42062918  0.55200749  0.49551766     0.12100
H295        H  0.42934643  0.47568049  0.44271189     0.11800
H296        H  0.50793302  0.46054678  0.46223796     0.08400
C297        C  0.72395385  0.54222051  0.62413403    -0.10700
C298        C  0.76003473  0.56550329  0.62930570     0.06400
C299        C  0.80659025  0.55766122  0.62483167    -0.09500
C300        C  0.81617841  0.52768486  0.61410375    -0.11100
C301        C  0.77922870  0.50519096  0.60740565    -0.00900
C302        C  0.73364402  0.51231140  0.61380612    -0.10000
C303        C  0.74804890  0.59808087  0.63861646     0.06500
H304        H  0.83531281  0.57495537  0.62920162     0.08400
H305        H  0.85255904  0.52216337  0.61169492     0.11800
H306        H  0.70490921  0.49480030  0.61027994     0.12100
H307        H  0.68805891  0.54722926  0.62806682     0.08400
C308        C  0.70870166  0.61531748  0.62722066    -0.10700
C309        C  0.69639727  0.64588791  0.63572572    -0.10000
C310        C  0.72289571  0.65989393  0.65598424    -0.00900
C311        C  0.76201114  0.64251791  0.66763449    -0.11100
C312        C  0.77471349  0.61194425  0.65890295    -0.09500
H313        H  0.68783369  0.60530031  0.61141181     0.08400
H314        H  0.66639849  0.65878092  0.62620421     0.12100
H315        H  0.78342085  0.65289620  0.68314338     0.11800
H316        H  0.80505264  0.59901097  0.66807321     0.08400
C317        C  0.31763885  0.35823226  0.40337591    -0.10700
C318        C  0.29833092  0.38092739  0.38603882     0.06400
C319        C  0.29551760  0.37236960  0.36157467    -0.09500
C320        C  0.31052993  0.34144284  0.35461812    -0.11100
C321        C  0.32904417  0.31850622  0.37198112    -0.00900
C322        C  0.33289070  0.32741514  0.39643088    -0.10000
C323        C  0.28167631  0.41350402  0.39352759     0.06500
H324        H  0.28068653  0.38939634  0.34784160     0.08400
H325        H  0.30670011  0.33523136  0.33567283     0.11800
H326        H  0.34710365  0.31036315  0.41026763     0.12100
H327        H  0.32102793  0.36438659  0.42231494     0.08400
C328        C  0.25296393  0.41632594  0.41226546    -0.10700
C329        C  0.24034108  0.44713335  0.42056779    -0.10000
C330        C  0.25506035  0.47604970  0.40996284    -0.00900
C331        C  0.28398858  0.47284584  0.39116841    -0.11100
C332        C  0.29656482  0.44212268  0.38287481    -0.09500
H333        H  0.24146488  0.39461629  0.42101343     0.08400
H334        H  0.22199622  0.44783379  0.43632629     0.12100
H335        H  0.29914767  0.49424273  0.38362986     0.11800
H336        H  0.31982612  0.44074962  0.36886747     0.08400
C337        C  0.07260035  0.97499316  0.53320643    -0.10700
C338        C  0.03594832  0.97077936  0.51407912     0.06400
C339        C  0.03239257  0.94039379  0.50210560    -0.09500
C340        C  0.06393694  0.91490167  0.50928661    -0.11100
C341        C  0.09955836  0.91890351  0.52880268    -0.00900
C342        C  0.10379487  0.94931456  0.54057153    -0.10000
C343        C  0.00177538  0.99788213  0.50659096     0.06500
H344        H  0.00439630  0.93584595  0.48758539     0.08400
H345        H  0.05938340  0.89164436  0.50000638     0.11800
H346        H  0.13077213  0.95312846  0.55573057     0.12100
H347        H  0.07736450  0.99816658  0.54254062     0.08400
C348        C  0.98812501  0.02057372  0.52349871    -0.10700
C349        C  0.95815471  0.04694658  0.51616891    -0.10000
C350        C  0.94055447  0.05097706  0.49181457    -0.00900
C351        C  0.95254480  0.02766355  0.47507543    -0.11100
C352        C  0.98297244  0.00163699  0.48230933    -0.09500
H353        H  0.00079420  0.01814629  0.54243760     0.08400
H354        H  0.94958751  0.06453180  0.52947701     0.12100
H355        H  0.93994798  0.03023620  0.45612329     0.11800
H356        H  0.99298823  0.98516705  0.46863473     0.08400
C357        C  0.83272115  0.26185067  0.53703778    -0.10700
C358        C  0.81650510  0.28934350  0.52325627     0.06400
C359        C  0.81301236  0.28707696  0.49801394    -0.09500
C360        C  0.82647661  0.25847808  0.48691495    -0.11100
C361        C  0.84309882  0.23123023  0.50073080    -0.00900
C362        C  0.84555951  0.23305249  0.52588228    -0.10000
C363        C  0.80520394  0.32056958  0.53518479     0.06500
H364        H  0.79965192  0.30734218  0.48673474     0.08400
H365        H  0.82351292  0.25763247  0.46744297     0.11800
H366        H  0.85815921  0.21237546  0.53696910     0.12100
H367        H  0.83660272  0.26277442  0.55649412     0.08400
C368        C  0.78529799  0.32052311  0.55705539    -0.10700
C369        C  0.77871847  0.34983051  0.56921649    -0.10000
C370        C  0.79289735  0.37988706  0.56012637    -0.00900
C371        C  0.80716494  0.38002914  0.53686826    -0.11100
C372        C  0.81478942  0.35085801  0.52493705    -0.09500
H373        H  0.77453382  0.29783791  0.56475024     0.08400
H374        H  0.76121208  0.34865663  0.58524453     0.12100
H375        H  0.81408709  0.40285456  0.52815367     0.11800
H376        H  0.82942537  0.35219397  0.50794969     0.08400
C377        C  0.67891452  0.15447625  0.39168813    -0.10700
C378        C  0.64080860  0.15331123  0.40568000     0.06400
C379        C  0.64985982  0.14351929  0.42986213    -0.09500
C380        C  0.69616516  0.13615253  0.44007773    -0.11100
C381        C  0.73451395  0.13851519  0.42635012    -0.00900
C382        C  0.72530560  0.14710753  0.40192431    -0.10000
C383        C  0.59205330  0.16349582  0.39553429     0.06500
H384        H  0.62133350  0.14278899  0.44117971     0.08400
H385        H  0.70217692  0.12999123  0.45900327     0.11800
H386        H  0.75419276  0.14914034  0.39090146     0.12100
H387        H  0.67291328  0.16152330  0.37294115     0.08400
C388        C  0.58490522  0.19185809  0.38135662    -0.10700
C389        C  0.53877109  0.20259636  0.37317236    -0.10000
C390        C  0.49884746  0.18511223  0.37892565    -0.00900
C391        C  0.50605867  0.15638945  0.39264797    -0.11100
C392        C  0.55211895  0.14574051  0.40089770    -0.09500
H393        H  0.61498352  0.20623296  0.37712331     0.08400
H394        H  0.53436218  0.22470505  0.36253193     0.12100
H395        H  0.47602338  0.14217964  0.39715442     0.11800
H396        H  0.55654075  0.12359799  0.41150612     0.08400
C397        C  0.05167543  0.16157944  0.39645068    -0.10700
C398        C  0.09378054  0.17021976  0.41105971     0.06400
C399        C  0.09226742  0.17430790  0.43591279    -0.09500
C400        C  0.04959666  0.17020749  0.44584959    -0.11100
C401        C  0.00750521  0.16196172  0.43115239    -0.00900
C402        C  0.00902645  0.15751102  0.40639080    -0.10000
C403        C  0.13875754  0.17564532  0.40031182     0.06500
H404        H  0.12387994  0.18130666  0.44766164     0.08400
H405        H  0.04957521  0.17349448  0.46505141     0.11800
H406        H  0.97721391  0.15080894  0.39466749     0.12100
H407        H  0.05173516  0.15764872  0.37732720     0.08400
C408        C  0.18296933  0.16620245  0.41261318    -0.10700
C409        C  0.22524322  0.17221132  0.40269433    -0.10000
C410        C  0.22416812  0.18766379  0.38024612    -0.00900
C411        C  0.18002926  0.19673493  0.36780450    -0.11100
C412        C  0.13784420  0.19087343  0.37774628    -0.09500
H413        H  0.18492402  0.15403124  0.42986824     0.08400
H414        H  0.25879120  0.16502832  0.41270127     0.12100
H415        H  0.17810181  0.20891960  0.35054531     0.11800
H416        H  0.10455418  0.19900067  0.36796469     0.08400
C417        C  0.34867016  0.09120372  0.20801447    -0.10700
C418        C  0.33017266  0.12268241  0.21149533     0.06400
C419        C  0.30307465  0.13797440  0.19197585    -0.09500
C420        C  0.29406243  0.12225719  0.16977731    -0.11100
C421        C  0.31160966  0.09061438  0.16637342    -0.00900
C422        C  0.33929638  0.07531321  0.18571855    -0.10000
C423        C  0.33706899  0.13910748  0.23550577     0.06500
H424        H  0.28725121  0.16192693  0.19403615     0.08400
H425        H  0.27181834  0.13452747  0.15541108     0.11800
H426        H  0.35387139  0.05099673  0.18358451     0.12100
H427        H  0.37032877  0.07886426  0.22250823     0.08400
C428        C  0.33615841  0.12092097  0.25676291    -0.10700
C429        C  0.33951845  0.13655878  0.27915771    -0.10000
C430        C  0.34391950  0.17078000  0.28089847    -0.00900
C431        C  0.34552286  0.18897059  0.25975986    -0.11100
C432        C  0.34222462  0.17333962  0.23734813    -0.09500
H433        H  0.33153471  0.09464721  0.25608685     0.08400
H434        H  0.33828131  0.12180652  0.29513070     0.12100
H435        H  0.34911816  0.21537526  0.26052640     0.11800
H436        H  0.34380487  0.18814367  0.22142055     0.08400
C437        C  0.80696836  0.31188726  0.73656110    -0.10700
C438        C  0.79818066  0.34570601  0.73405017     0.06400
C439        C  0.79126693  0.36395304  0.75468182    -0.09500
C440        C  0.79326443  0.34886129  0.77718642    -0.11100
C441        C  0.80244611  0.31517118  0.77966440    -0.00900
C442        C  0.80923008  0.29682611  0.75912112    -0.10000
C443        C  0.79652000  0.36190475  0.71008516     0.06500
H444        H  0.78511951  0.39008136  0.75355724     0.08400
H445        H  0.78798458  0.36366967  0.79269304     0.11800
H446        H  0.81609889  0.27077205  0.76045560     0.12100
H447        H  0.81159647  0.29693221  0.72104566     0.08400
C448        C  0.76436630  0.38764006  0.70365815    -0.10700
C449        C  0.76282857  0.40275491  0.68115570    -0.10000
C450        C  0.79280946  0.39219117  0.66441717    -0.00900
C451        C  0.82506420  0.36663243  0.67076896    -0.11100
C452        C  0.82714712  0.35181739  0.69340129    -0.09500
H453        H  0.73970121  0.39572760  0.71582204     0.08400
H454        H  0.73726381  0.42215021  0.67651956     0.12100
H455        H  0.84897203  0.35835537  0.65828794     0.11800
H456        H  0.85308656  0.33262460  0.69788875     0.08400
C457        C  0.25853128  0.21848922  0.03040536    -0.10700
C458        C  0.28307954  0.18941357  0.02632468     0.06400
C459        C  0.31940432  0.19053640  0.01117788    -0.09500
C460        C  0.33035613  0.21978172  0.00016782    -0.11100
C461        C  0.30591667  0.24874775  0.00436572    -0.00900
C462        C  0.27005411  0.24788290  0.01967446    -0.10000
C463        C  0.27198419  0.15816380  0.03818232     0.06500
H464        H  0.33985547  0.16890483  0.00804075     0.08400
H465        H  0.35835246  0.21978581  0.98849832     0.11800
H466        H  0.25027976  0.26977489  0.02295324     0.12100
H467        H  0.22984593  0.21851889  0.04164339     0.08400
C468        C  0.25910852  0.15792347  0.06169144    -0.10700
C469        C  0.25377014  0.12836953  0.07364358    -0.10000
C470        C  0.26349893  0.09840114  0.06286884    -0.00900
C471        C  0.26993985  0.09863765  0.03831647    -0.11100
C472        C  0.27513573  0.12808691  0.02626511    -0.09500
H473        H  0.25452079  0.18054276  0.07123201     0.08400
H474        H  0.24181893  0.12929046  0.09118812     0.12100
H475        H  0.27318959  0.07590551  0.02868471     0.11800
H476        H  0.28226999  0.12725092  0.00769296     0.08400
C477        C  0.03012560  0.32232037  0.87366931    -0.10700
C478        C  0.04450015  0.32311260  0.89864818     0.06400
C479        C  0.01122344  0.31379458  0.91423871    -0.09500
C480        C  0.96514157  0.30394529  0.90512902    -0.11100
C481        C  0.95139899  0.30260595  0.88021249    -0.00900
C482        C  0.98437639  0.31186210  0.86458801    -0.10000
C483        C  0.09444820  0.33210612  0.90834346     0.06500
H484        H  0.02100406  0.31330352  0.93352286     0.08400
H485        H  0.94054759  0.29670522  0.91759162     0.11800
H486        H  0.97463123  0.31134028  0.84527498     0.12100
H487        H  0.05409326  0.32988275  0.86104299     0.08400
C488        C  0.13283995  0.32395196  0.89555829    -0.10700
C489        C  0.17989508  0.32954848  0.90549383    -0.10000
C490        C  0.18998678  0.34318712  0.92856392    -0.00900
C491        C  0.15181650  0.35273216  0.94098254    -0.11100
C492        C  0.10463059  0.34740148  0.93095071    -0.09500
H493        H  0.12686229  0.31181467  0.87827999     0.08400
H494        H  0.20849866  0.32188879  0.89546808     0.12100
H495        H  0.15839795  0.36341220  0.95877490     0.11800
H496        H  0.07618964  0.35483532  0.94112898     0.08400
C497        C  0.50617553  0.32337087  0.89646912    -0.10700
C498        C  0.54616371  0.30890004  0.90980471     0.06400
C499        C  0.54164099  0.29706891  0.93300916    -0.09500
C500        C  0.49878467  0.30057866  0.94289780    -0.11100
C501        C  0.45930798  0.31578808  0.92976277    -0.00900
C502        C  0.46320422  0.32668281  0.90631599    -0.10000
C503        C  0.59239715  0.30641602  0.89961709     0.06500
H504        H  0.57123698  0.28510167  0.94358279     0.08400
H505        H  0.49679926  0.29177260  0.96098158     0.11800
H506        H  0.43343676  0.33859445  0.89580899     0.12100
H507        H  0.50839887  0.33305699  0.87865428     0.08400
C508        C  0.59326053  0.30019885  0.87497607    -0.10700
C509        C  0.63644141  0.29727312  0.86539941    -0.10000
C510        C  0.67996633  0.30012986  0.88023797    -0.00900
C511        C  0.67939477  0.30704382  0.90477735    -0.11100
C512        C  0.63605008  0.31020920  0.91437119    -0.09500
H513        H  0.56050141  0.29666810  0.86310668     0.08400
H514        H  0.63567328  0.29176980  0.84643287     0.12100
H515        H  0.71239905  0.30932185  0.91665270     0.11800
H516        H  0.63676901  0.31562891  0.93332823     0.08400
C517        C  0.70635481  0.89083764  0.81306774    -0.10700
C518        C  0.72922416  0.86061196  0.81081209     0.06400
C519        C  0.75753076  0.84761662  0.83089247    -0.09500
C520        C  0.76248973  0.86435026  0.85282512    -0.11100
C521        C  0.73925262  0.89439523  0.85512962    -0.00900
C522        C  0.71141309  0.90759951  0.83499696    -0.10000
C523        C  0.72410316  0.84299395  0.78746928     0.06500
H524        H  0.77616032  0.82464495  0.82956869     0.08400
H525        H  0.78446201  0.85380326  0.86804582     0.11800
H526        H  0.69236813  0.93035613  0.83644161     0.12100
H527        H  0.68379409  0.90121974  0.79796445     0.08400
C528        C  0.71686259  0.80894946  0.78642123    -0.10700
C529        C  0.71202034  0.79257716  0.76427099    -0.10000
C530        C  0.71461211  0.80994505  0.74281683    -0.00900
C531        C  0.72211612  0.84391981  0.74394741    -0.11100
C532        C  0.72667683  0.86024961  0.76600047    -0.09500
H533        H  0.71433114  0.79508813  0.80268952     0.08400
H534        H  0.70621930  0.76638829  0.76393259     0.12100
H535        H  0.72443357  0.85798010  0.72773924     0.11800
H536        H  0.73287272  0.88641136  0.76629189     0.08400
C537        C  0.56716979  0.97191120  0.01617777    -0.10700
C538        C  0.53354979  0.99643801  0.00946194     0.06400
C539        C  0.53750514  0.01464813  0.98845487    -0.09500
C540        C  0.57312786  0.00729270  0.97385884    -0.11100
C541        C  0.60547847  0.98168667  0.98007782    -0.00900
C542        C  0.60283796  0.96477325  0.00177188    -0.10000
C543        C  0.49378026  0.00220751  0.02402683     0.06500
H544        H  0.51194676  0.03370538  0.98284919     0.08400
H545        H  0.57414870  0.02066296  0.95724617     0.11800
H546        H  0.62805029  0.94561120  0.00754539     0.12100
H547        H  0.56565531  0.95805589  0.03256055     0.08400
C548        C  0.46826063  0.97574078  0.03218288    -0.10700
C549        C  0.42958186  0.98116001  0.04514902    -0.10000
C550        C  0.41578466  0.01316594  0.05036626    -0.00900
C551        C  0.44254343  0.03952764  0.04287611    -0.11100
C552        C  0.48076677  0.03411642  0.02969575    -0.09500
H553        H  0.47737078  0.95086110  0.02790777     0.08400
H554        H  0.40957598  0.96032102  0.05037928     0.12100
H555        H  0.43393890  0.06448885  0.04708153     0.11800
H556        H  0.50035972  0.05490813  0.02402766     0.08400
C557        C  0.95728153  0.95222839  0.00757782    -0.10700
C558        C  0.96963122  0.98476926  0.01340181     0.06400
C559        C  0.93692099  0.00978479  0.00641379    -0.09500
C560        C  0.89314858  0.00254547  0.99321426    -0.11100
C561        C  0.88128517  0.97013156  0.98651642    -0.00900
C562        C  0.91357699  0.94497569  0.99415360    -0.10000
C563        C  0.01750885  0.99291077  0.02552867     0.06500
H564        H  0.94546910  0.03502512  0.01102823     0.08400
H565        H  0.86866622  0.02237794  0.98815228     0.11800
H566        H  0.90575583  0.91980620  0.98912297     0.20700
H567        H  0.98216773  0.93258369  0.01266017     0.08400
C568        C  0.03623755  0.97673846  0.04664811    -0.10700
C569        C  0.08165055  0.98462457  0.05788799    -0.10000
C570        C  0.10950038  0.00855715  0.04803048    -0.00900
C571        C  0.09068344  0.02433660  0.02667419    -0.11100
C572        C  0.04509077  0.01675815  0.01566406    -0.09500
H573        H  0.01542608  0.95837497  0.05462928     0.08400
H574        H  0.09451680  0.97228364  0.07446650     0.12100
H575        H  0.11130451  0.04231556  0.01825965     0.11800
H576        H  0.03159094  0.02916797  0.99915195     0.08400
C577        C  0.73618369  0.11856904  0.86192208    -0.10700
C578        C  0.76987837  0.10154326  0.87781092     0.06400
C579        C  0.81411836  0.11642201  0.88503371    -0.09500
C580        C  0.82389052  0.14785851  0.87726179    -0.11100
C581        C  0.78979530  0.16522871  0.86199407    -0.00900
C582        C  0.74613811  0.15007381  0.85401234    -0.10000
C583        C  0.75887057  0.06898011  0.88769898     0.06500
H584        H  0.84069665  0.10426285  0.89748709     0.08400
H585        H  0.85779252  0.15894176  0.88374310     0.11800
H586        H  0.71903317  0.16301454  0.84232387     0.12100
H587        H  0.70201358  0.10765903  0.85577072     0.08400
C588        C  0.71355130  0.06202306  0.89443536    -0.10700
C589        C  0.70482324  0.03235479  0.90566461    -0.10000
C590        C  0.74150582  0.00923908  0.91086860    -0.00900
C591        C  0.78577286  0.01548915  0.90262446    -0.11100
C592        C  0.79448580  0.04496062  0.89143164    -0.09500
H593        H  0.68502337  0.07980872  0.89151464     0.08400
H594        H  0.66917702  0.02760321  0.90979327     0.12100
H595        H  0.81408855  0.99750759  0.90511920     0.11800
H596        H  0.82929989  0.04895194  0.88572188     0.08400
C597        C  0.19784977  0.67498003  0.28181910    -0.10700
C598        C  0.19486576  0.64061835  0.28324883     0.06400
C599        C  0.18525556  0.62263728  0.26181914    -0.09500
C600        C  0.17935403  0.63840823  0.23959409    -0.11100
C601        C  0.18224048  0.67262976  0.23816798    -0.00900
C602        C  0.19132447  0.69084637  0.25948369    -0.10000
C603        C  0.20200059  0.62345193  0.30687783     0.06500
H604        H  0.18170770  0.59626940  0.26216516     0.08400
H605        H  0.17211997  0.62371629  0.22346985     0.11800
H606        H  0.19408772  0.71725807  0.25887147     0.12100
H607        H  0.20598661  0.68959461  0.29790315     0.08400
C608        C  0.22485447  0.59278033  0.30909142    -0.10700
C609        C  0.23224887  0.57685826  0.33131759    -0.10000
C610        C  0.21754566  0.59137977  0.35194045    -0.00900
C611        C  0.19394367  0.62171948  0.34969742    -0.11100
C612        C  0.18612791  0.63751660  0.32743638    -0.09500
H613        H  0.23823171  0.58136696  0.29376474     0.08400
H614        H  0.25092924  0.55368703  0.33252936     0.12100
H615        H  0.18131168  0.63321607  0.36519135     0.11800
H616        H  0.16736559  0.66065839  0.32632804     0.08400
C617        C  0.23732907  0.86838239  0.15878471    -0.10700
C618        C  0.22873299  0.87761463  0.13446529     0.06400
C619        C  0.20412302  0.85611122  0.11784828    -0.09500
C620        C  0.18832741  0.82592628  0.12541405    -0.11100
C621        C  0.19719219  0.81648119  0.14969956    -0.00900
C622        C  0.22199275  0.83794589  0.16631901    -0.10000
C623        C  0.24401209  0.91005561  0.12654994     0.06500
H624        H  0.19658982  0.86283192  0.09910817     0.08400
H625        H  0.16963386  0.80979771  0.11213324     0.11800
H626        H  0.22982627  0.83113790  0.18507380     0.12100
H627        H  0.25639576  0.88455463  0.17184914     0.08400
C628        C  0.23244671  0.93828217  0.13880570    -0.10700
C629        C  0.24404204  0.96915286  0.13064024    -0.10000
C630        C  0.26918042  0.97268464  0.11049378    -0.00900
C631        C  0.27974564  0.94418554  0.09797681    -0.11100
C632        C  0.26778406  0.91323431  0.10603585    -0.09500
H633        H  0.21244288  0.93651690  0.15412408     0.08400
H634        H  0.23109263  0.99026922  0.13946762     0.12100
H635        H  0.29506046  0.94573243  0.08111946     0.11800
H636        H  0.27617092  0.89177266  0.09595646     0.08400
C637        C  0.44002343  0.47926165  0.99072214    -0.10700
C638        C  0.47564508  0.47493237  0.01034779     0.06400
C639        C  0.47546678  0.44565029  0.02360931    -0.09500
C640        C  0.44188332  0.42113583  0.01701759    -0.11100
C641        C  0.40790905  0.42492580  0.99677003    -0.00900
C642        C  0.40685957  0.45448662  0.98391737    -0.10000
C643        C  0.51290904  0.50058641  0.01685260     0.06500
H644        H  0.50240284  0.44096335  0.03862496     0.08400
H645        H  0.44396903  0.39853926  0.02716613     0.11800
H646        H  0.38105520  0.45818626  0.96822287     0.12100
H647        H  0.43786109  0.50172429  0.98041920     0.08400
C648        C  0.52915577  0.52082531  0.99912149    -0.10700
C649        C  0.56189247  0.54604600  0.00547257    -0.10000
C650        C  0.57956372  0.55153746  0.02967815    -0.00900
C651        C  0.56544518  0.53027276  0.04723296    -0.11100
C652        C  0.53239884  0.50534443  0.04095428    -0.09500
H653        H  0.51623368  0.51748853  0.98029963     0.08400
H654        H  0.57203144  0.56201112  0.99148544     0.12100
H655        H  0.57816242  0.53387861  0.06607225     0.11800
H656        H  0.52075199  0.49070987  0.05526360     0.08400
C657        C  0.71976682  0.78138998  0.01114423    -0.10700
C658        C  0.69056356  0.79251547  0.99064258     0.06400
C659        C  0.65075647  0.77342456  0.98171356    -0.09500
C660        C  0.64079038  0.74400235  0.99286163    -0.11100
C661        C  0.66956078  0.73351059  0.01354203    -0.00900
C662        C  0.70900779  0.75248658  0.02261450    -0.10000
C663        C  0.70159094  0.82383309  0.97874841     0.06500
H664        H  0.62661437  0.78138834  0.96639688     0.08400
H665        H  0.60982043  0.72994166  0.98573189     0.11800
H666        H  0.73195618  0.74473320  0.03848133     0.12100
H667        H  0.75125663  0.79480115  0.01829661     0.08400
C668        C  0.72309075  0.85011077  0.99221919    -0.10700
C669        C  0.73340615  0.87937559  0.98099142    -0.10000
C670        C  0.72318763  0.88320493  0.95591006    -0.00900
C671        C  0.69812388  0.85784789  0.94292421    -0.11100
C672        C  0.68928631  0.82821794  0.95390082    -0.09500
H673        H  0.73070839  0.84855941  0.01159627     0.08400
H674        H  0.74749185  0.89946484  0.99220299     0.12100
H675        H  0.68349847  0.86101435  0.92439818     0.11800
H676        H  0.67207480  0.80896060  0.94279953     0.08400
C677        C  0.93550052  0.69392250  0.13666117    -0.10700
C678        C  0.92788079  0.66637012  0.12161863     0.06400
C679        C  0.96751713  0.64810385  0.11633715    -0.09500
C680        C  0.01368620  0.65738097  0.12565858    -0.11100
C681        C  0.02127860  0.68526496  0.14032277    -0.00900
C682        C  0.98168382  0.70331903  0.14585715    -0.10000
C683        C  0.87887612  0.65738355  0.11092175     0.06500
H684        H  0.96280067  0.62657238  0.10504180     0.08400
H685        H  0.04348529  0.64290042  0.12115976     0.11800
H686        H  0.98639627  0.72487627  0.15712181     0.12100
H687        H  0.90577687  0.70872365  0.14085059     0.08400
C688        C  0.84040484  0.65928454  0.12464507    -0.10700
C689        C  0.79392276  0.65277250  0.11416345    -0.10000
C690        C  0.78479868  0.64420923  0.08972076    -0.00900
C691        C  0.82338898  0.64151105  0.07613499    -0.11100
C692        C  0.86989295  0.64797948  0.08662668    -0.09500
H693        H  0.84622715  0.66606446  0.14346325     0.08400
H694        H  0.76493096  0.65519191  0.12510098     0.12100
H695        H  0.81751050  0.63537017  0.05719467     0.11800
H696        H  0.89866932  0.64670037  0.07548438     0.08400
C697        C  0.37152643  0.66819386  0.13602122    -0.10700
C698        C  0.37626920  0.68044482  0.11296052     0.06400
C699        C  0.33690612  0.69574861  0.09978941    -0.09500
C700        C  0.29408712  0.69928656  0.10965796    -0.11100
C701        C  0.28993088  0.68784859  0.13294512    -0.00900
C702        C  0.32886090  0.67206150  0.14598337    -0.10000
C703        C  0.42227602  0.67768173  0.10281315     0.06500
H704        H  0.33960394  0.70581493  0.08212643     0.08400
H705        H  0.26475108  0.71200912  0.09938873     0.11800
H706        H  0.32644910  0.66298669  0.16397002     0.12100
H707        H  0.40089949  0.65571360  0.14641601     0.08400
C708        C  0.46570073  0.68237640  0.11750370    -0.10700
C709        C  0.50906375  0.67898392  0.10804506    -0.10000
C710        C  0.50978564  0.67116310  0.08367490    -0.00900
C711        C  0.46641642  0.66727450  0.06885818    -0.11100
C712        C  0.42313594  0.67031521  0.07834648    -0.09500
H713        H  0.46615584  0.68872065  0.13630960     0.08400
H714        H  0.54199060  0.68226669  0.11980831     0.12100
H715        H  0.46592360  0.66089985  0.05004762     0.11800
H716        H  0.39039327  0.66615862  0.06664078     0.08400
loop_ 
_geom_bond_atom_site_label_1 
_geom_bond_atom_site_label_2 
_geom_bond_distance 
_geom_bond_site_symmetry_2 
_ccdc_geom_bond_type 
O1            C4   1.269       .  A
O1           Cd6   2.464       .  S
C2           O11   1.263       .  A
C2            O7   1.268       .  A
C2          C710   1.476       .  S
O3            C9   1.269       .  A
O3           Cd6   2.498       .  S
C4           O12   1.269       .  A
C4          C690   1.484       .  S
C5           O10   1.269       .  A
C5            O8   1.266       .  A
C5          C650   1.487       .  S
Cd6          O13   2.428       .  S
Cd6          O12   2.466       .  S
Cd6          O11   2.441       .  S
Cd6           O7   2.484       .  S
Cd6          O10   2.499       .  S
Cd6           O8   2.456       .  S
C9           O13   1.262       .  A
C9          C661   1.474       .  S
O14          C17   1.266       .  A
O14         Cd19   2.463       .  S
C15          O24   1.263       .  A
C15          O20   1.265       .  A
C15         C701   1.472       .  S
O16          C22   1.269       .  A
O16         Cd19   2.489       .  S
C17          O25   1.267       .  A
C17         C681   1.481       .  S
C18          O23   1.271       .  A
C18          O21   1.265       .  A
C18         C601   1.477       .  S
Cd19         O26   2.418       .  S
Cd19         O25   2.471       .  S
Cd19         O24   2.449       .  S
Cd19         O20   2.458       .  S
Cd19         O23   2.490       .  S
Cd19         O21   2.409       .  S
C22          O26   1.263       .  A
C22         C621   1.477       .  S
C27          C29   1.549       .  S
C27          C31   1.538       .  S
C27          C30   1.537       .  S
C27         C590   1.526   1_565  S
C28          C32   1.536       .  S
C28          C34   1.543       .  S
C28          C33   1.535       .  S
C28         C670   1.528       .  S
C29          C37   1.393       .  A
C29          C32   1.404       .  A
C30          C41   1.379       .  A
C30          C33   1.388       .  A
C31          C45   1.374       .  A
C31          C34   1.392       .  A
C32          C35   1.370       .  A
C33          C39   1.377       .  A
C34          C42   1.382       .  A
C35          N36   1.352       .  A
C35          H48   1.081       .  S
N36          C37   1.360       .  A
N36         C541   1.443       .  S
C37          H38   1.081   1_565  S
C39          N40   1.356       .  A
C39          H49   1.080       .  S
N40          C41   1.359       .  A
N40         C521   1.438       .  S
C41          H47   1.083       .  S
C42          N43   1.361       .  A
C42          H44   1.081       .  S
N43          C45   1.359       .  A
N43         C561   1.443       .  S
C45          H46   1.082   1_565  S
O50          C53   1.270       .  A
O50         Cd55   2.482       .  S
C51          O60   1.266       .  A
C51          O56   1.268       .  A
C51         C490   1.484       .  S
O52          C58   1.268       .  A
O52         Cd55   2.486       .  S
C53          O61   1.265       .  A
C53         C501   1.479       .  S
C54          O59   1.267       .  A
C54          O57   1.265       .  A
C54         C641   1.485       .  S
Cd55         O62   2.449       .  S
Cd55         O61   2.434       .  S
Cd55         O60   2.479       .  S
Cd55         O56   2.470       .  S
Cd55         O59   2.479       .  S
Cd55         O57   2.480       .  S
C58          O62   1.264       .  A
C58         C461   1.478   1_556  S
O63          C66   1.268       .  A
O63         Cd68   2.487       .  S
C64          O73   1.262       .  A
C64          O69   1.267       .  A
C64         C510   1.479       .  S
O65          C71   1.269       .  A
O65         Cd68   2.472       .  S
C66          O74   1.265       .  A
C66         C481   1.482       .  S
C67          O72   1.263       .  A
C67          O70   1.263       .  A
C67         C581   1.479       .  S
Cd68         O75   2.444       .  S
Cd68         O74   2.464       .  S
Cd68         O73   2.433       .  S
Cd68         O69   2.500       .  S
Cd68         O72   2.497       .  S
Cd68         O70   2.465       .  S
C71          O75   1.267       .  A
C71         C441   1.480       .  S
C76          C78   1.538       .  S
C76          C80   1.530       .  S
C76          C79   1.546       .  S
C76         C470   1.529       .  S
C77          C81   1.547       .  S
C77          C83   1.531       .  S
C77          C82   1.546       .  S
C77         C630   1.522   1_545  S
C78          C86   1.370       .  A
C78          C81   1.394       .  A
C79          C90   1.379       .  A
C79          C82   1.399       .  A
C80          C94   1.377       .  A
C80          C83   1.384       .  A
C81          C84   1.385   1_545  A
C82          C88   1.383       .  A
C83          C91   1.374   1_545  A
C84          N85   1.364   1_565  A
C84          H97   1.081       .  S
N85          C86   1.356       .  A
N85         C550   1.445       .  S
C86          H87   1.082       .  S
C88          N89   1.358       .  A
C88          H98   1.091       .  S
N89          C90   1.357       .  A
N89         C421   1.444       .  S
C90          H96   1.082       .  S
C91          N92   1.360   1_565  A
C91          H93   1.082       .  S
N92          C94   1.363       .  A
N92         C570   1.444       .  S
C94          H95   1.082       .  S
O99         C102   1.267       .  A
O99        Cd104   2.460       .  S
C100        O109   1.265       .  A
C100        O105   1.267       .  A
C100        C401   1.477   1_655  S
O101        C107   1.269       .  A
O101       Cd104   2.480       .  S
C102        O110   1.267       .  A
C102        C381   1.480       .  S
C103        O108   1.269       .  A
C103        O106   1.265       .  A
C103        C350   1.482       .  S
Cd104       O111   2.440       .  S
Cd104       O110   2.461       .  S
Cd104       O109   2.450       .  S
Cd104       O105   2.460       .  S
Cd104       O108   2.489       .  S
Cd104       O106   2.439       .  S
C107        O111   1.265       .  A
C107        C361   1.479       .  S
O112        C115   1.266       .  A
O112       Cd117   2.469       .  S
C113        O122   1.265       .  A
C113        O118   1.268       .  A
C113        C410   1.477       .  S
O114        C120   1.270       .  A
O114       Cd117   2.497       .  S
C115        O123   1.266       .  A
C115        C390   1.482       .  S
C116        O121   1.270       .  A
C116        O119   1.264       .  A
C116        C430   1.483       .  S
Cd117       O124   2.463       .  S
Cd117       O123   2.474       .  S
Cd117       O122   2.439       .  S
Cd117       O118   2.465       .  S
Cd117       O121   2.497       .  S
Cd117       O119   2.451       .  S
C120        O124   1.265       .  A
C120        C321   1.486       .  S
C125        C127   1.550       .  S
C125        C129   1.532       .  S
C125        C128   1.539       .  S
C125        C301   1.528       .  S
C126        C130   1.544       .  S
C126        C132   1.542       .  S
C126        C131   1.545       .  S
C126        C370   1.531       .  S
C127        C135   1.389       .  A
C127        C130   1.400       .  A
C128        C139   1.378       .  A
C128        C131   1.396       .  A
C129        C143   1.374       .  A
C129        C132   1.385       .  A
C130        C133   1.373       .  A
C131        C137   1.386       .  A
C132        C140   1.384       .  A
C133        N134   1.355       .  A
C133        H146   1.080       .  S
N134        C135   1.362       .  A
N134        C261   1.447       .  S
C135        H136   1.081       .  S
C137        N138   1.358       .  A
C137        H147   1.080       .  S
N138        C139   1.356       .  A
N138        C450   1.440       .  S
C139        H145   1.083       .  S
C140        N141   1.364       .  A
C140        H142   1.081       .  S
N141        C143   1.359       .  A
N141        C281   1.447       .  S
C143        H144   1.081       .  S
O148        C151   1.266       .  A
O148       Cd153   2.449       .  S
C149        O158   1.268       .  A
C149        O154   1.264       .  A
C149        C221   1.477       .  S
O150        C156   1.269       .  A
O150       Cd153   2.494       .  S
C151        O159   1.264       .  A
C151        C250   1.472       .  S
C152        O157   1.267       .  A
C152        O155   1.267       .  A
C152        C341   1.483       .  S
Cd153       O160   2.407       .  S
Cd153       O159   2.440       .  S
Cd153       O158   2.490       .  S
Cd153       O154   2.441       .  S
Cd153       O157   2.462       .  S
Cd153       O155   2.476       .  S
C156        O160   1.263       .  A
C156        C201   1.474       .  S
O161        C164   1.267       .  A
O161       Cd166   2.483       .  S
C162        O171   1.267       .  A
C162        O167   1.268       .  A
C162        C230   1.483       .  S
O163        C169   1.266       .  A
O163       Cd166   2.499       .  S
C164        O172   1.263       .  A
C164        C241   1.473       .  S
C165        O170   1.270       .  A
C165        O168   1.266       .  A
C165        C530   1.479       .  S
Cd166       O173   2.451       .  S
Cd166       O172   2.433       .  S
Cd166       O171   2.461       .  S
Cd166       O167   2.483       .  S
Cd166       O170   2.482       .  S
Cd166       O168   2.432       .  S
C169        O173   1.263       .  A
C169        C310   1.481       .  S
C174        C176   1.534       .  S
C174        C178   1.549       .  S
C174        C177   1.538       .  S
C174        C210   1.529       .  S
C175        C179   1.551       .  S
C175        C181   1.534       .  S
C175        C180   1.543       .  S
C175        C330   1.533       .  S
C176        C184   1.374       .  A
C176        C179   1.396       .  A
C177        C188   1.376       .  A
C177        C180   1.392       .  A
C178        C192   1.388       .  A
C178        C181   1.392       .  A
C179        C182   1.386       .  A
C180        C186   1.381       .  A
C181        C189   1.374       .  A
C182        N183   1.364       .  A
C182        H195   1.080       .  S
N183        C184   1.356       .  A
N183        C270   1.444       .  S
C184        H185   1.082       .  S
C186        N187   1.361       .  A
C186        H196   1.081       .  S
N187        C188   1.357       .  A
N187        C610   1.442       .  S
C188        H194   1.082       .  S
C189        N190   1.357       .  A
C189        H191   1.080       .  S
N190        C192   1.363       .  A
N190        C290   1.448       .  S
C192        H193   1.079       .  S
C197        C198   1.402       .  A
C197        C202   1.392       .  A
C197        H207   1.083       .  S
C198        C203   1.478       .  S
C198        C199   1.406       .  A
C199        C200   1.401       .  A
C199        H204   1.083       .  S
C200        C201   1.404       .  A
C200        H205   1.084       .  S
C201        C202   1.405       .  A
C202        H206   1.083       .  S
C203        C208   1.402       .  A
C203        C212   1.399       .  A
C208        C209   1.397       .  A
C208        H213   1.083       .  S
C209        C210   1.407       .  A
C209        H214   1.073       .  S
C210        C211   1.412       .  A
C211        C212   1.396       .  A
C211        H215   1.082       .  S
C212        H216   1.083       .  S
C217        C218   1.406       .  A
C217        C222   1.396       .  A
C217        H227   1.082       .  S
C218        C223   1.489       .  S
C218        C219   1.408       .  A
C219        C220   1.402       .  A
C219        H224   1.083       .  S
C220        C221   1.404       .  A
C220        H225   1.083       .  S
C221        C222   1.404       .  A
C222        H226   1.083       .  S
C223        C228   1.406       .  A
C223        C232   1.407       .  A
C228        C229   1.398       .  A
C228        H233   1.081       .  S
C229        C230   1.405       .  A
C229        H234   1.084       .  S
C230        C231   1.406       .  A
C231        C232   1.401       .  A
C231        H235   1.083       .  S
C232        H236   1.082       .  S
C237        C238   1.404       .  A
C237        C242   1.393       .  A
C237        H247   1.083       .  S
C238        C243   1.481       .  S
C238        C239   1.407       .  A
C239        C240   1.399       .  A
C239        H244   1.082       .  S
C240        C241   1.404       .  A
C240        H245   1.083       .  S
C241        C242   1.403       .  A
C242        H246   1.083       .  S
C243        C248   1.405       .  A
C243        C252   1.405       .  A
C248        C249   1.394   1_655  A
C248        H253   1.082       .  S
C249        C250   1.402       .  A
C249        H254   1.084       .  S
C250        C251   1.405       .  A
C251        C252   1.397   1_455  A
C251        H255   1.082       .  S
C252        H256   1.084       .  S
C257        C258   1.403   1_655  A
C257        C262   1.394       .  A
C257        H267   1.084       .  S
C258        C263   1.486       .  S
C258        C259   1.407   1_455  A
C259        C260   1.403       .  A
C259        H264   1.083   1_655  S
C260        C261   1.407       .  A
C260        H265   1.082       .  S
C261        C262   1.409       .  A
C262        H266   1.080       .  S
C263        C268   1.406       .  A
C263        C272   1.405       .  A
C268        C269   1.397       .  A
C268        H273   1.083       .  S
C269        C270   1.405       .  A
C269        H274   1.082       .  S
C270        C271   1.409       .  A
C271        C272   1.401       .  A
C271        H275   1.081       .  S
C272        H276   1.083       .  S
C277        C278   1.404       .  A
C277        C282   1.397       .  A
C277        H287   1.083       .  S
C278        C283   1.489       .  S
C278        C279   1.407       .  A
C279        C280   1.402       .  A
C279        H284   1.083       .  S
C280        C281   1.407       .  A
C280        H285   1.083       .  S
C281        C282   1.408       .  A
C282        H286   1.081       .  S
C283        C288   1.406       .  A
C283        C292   1.404       .  A
C288        C289   1.399       .  A
C288        H293   1.083       .  S
C289        C290   1.407       .  A
C289        H294   1.082       .  S
C290        C291   1.409       .  A
C291        C292   1.400       .  A
C291        H295   1.081       .  S
C292        H296   1.083       .  S
C297        C298   1.401       .  A
C297        C302   1.393       .  A
C297        H307   1.083       .  S
C298        C303   1.483       .  S
C298        C299   1.405       .  A
C299        C300   1.404       .  A
C299        H304   1.083       .  S
C300        C301   1.409       .  A
C300        H305   1.077       .  S
C301        C302   1.408       .  A
C302        H306   1.084       .  S
C303        C308   1.404       .  A
C303        C312   1.405       .  A
C308        C309   1.395       .  A
C308        H313   1.084       .  S
C309        C310   1.404       .  A
C309        H314   1.083       .  S
C310        C311   1.407       .  A
C311        C312   1.403       .  A
C311        H315   1.084       .  S
C312        H316   1.083       .  S
C317        C318   1.405       .  A
C317        C322   1.401       .  A
C317        H327   1.082       .  S
C318        C323   1.488       .  S
C318        C319   1.406       .  A
C319        C320   1.402       .  A
C319        H324   1.084       .  S
C320        C321   1.406       .  A
C320        H325   1.083       .  S
C321        C322   1.407       .  A
C322        H326   1.083       .  S
C323        C328   1.405       .  A
C323        C332   1.401       .  A
C328        C329   1.402       .  A
C328        H333   1.083       .  S
C329        C330   1.408       .  A
C329        H334   1.075       .  S
C330        C331   1.413       .  A
C331        C332   1.399       .  A
C331        H335   1.082       .  S
C332        H336   1.083       .  S
C337        C338   1.409       .  A
C337        C342   1.401       .  A
C337        H347   1.082       .  S
C338        C343   1.496       .  S
C338        C339   1.409       .  A
C339        C340   1.399       .  A
C339        H344   1.081       .  S
C340        C341   1.404       .  A
C340        H345   1.083       .  S
C341        C342   1.405       .  A
C342        H346   1.083       .  S
C343        C348   1.410   1_465  A
C343        C352   1.408   1_465  A
C348        C349   1.402       .  A
C348        H353   1.082   1_655  S
C349        C350   1.404       .  A
C349        H354   1.082       .  S
C350        C351   1.405       .  A
C351        C352   1.397       .  A
C351        H355   1.083       .  S
C352        H356   1.081   1_545  S
C357        C358   1.409       .  A
C357        C362   1.399       .  A
C357        H367   1.082       .  S
C358        C363   1.492       .  S
C358        C359   1.407       .  A
C359        C360   1.397       .  A
C359        H364   1.082       .  S
C360        C361   1.405       .  A
C360        H365   1.083       .  S
C361        C362   1.403       .  A
C362        H366   1.084       .  S
C363        C368   1.407       .  A
C363        C372   1.405       .  A
C368        C369   1.400       .  A
C368        H373   1.082       .  S
C369        C370   1.407       .  A
C369        H374   1.076       .  S
C370        C371   1.408       .  A
C371        C372   1.395       .  A
C371        H375   1.082       .  S
C372        H376   1.082       .  S
C377        C378   1.406       .  A
C377        C382   1.400       .  A
C377        H387   1.082       .  S
C378        C383   1.486       .  S
C378        C379   1.406       .  A
C379        C380   1.397       .  A
C379        H384   1.083       .  S
C380        C381   1.405       .  A
C380        H385   1.082       .  S
C381        C382   1.406       .  A
C382        H386   1.084       .  S
C383        C388   1.406       .  A
C383        C392   1.405       .  A
C388        C389   1.400       .  A
C388        H393   1.083       .  S
C389        C390   1.406       .  A
C389        H394   1.082       .  S
C390        C391   1.405       .  A
C391        C392   1.398       .  A
C391        H395   1.084       .  S
C392        H396   1.082       .  S
C397        C398   1.407       .  A
C397        C402   1.397       .  A
C397        H407   1.082       .  S
C398        C403   1.487       .  S
C398        C399   1.406       .  A
C399        C400   1.397       .  A
C399        H404   1.083       .  S
C400        C401   1.405       .  A
C400        H405   1.083       .  S
C401        C402   1.403       .  A
C402        H406   1.084   1_455  S
C403        C408   1.407       .  A
C403        C412   1.406       .  A
C408        C409   1.398       .  A
C408        H413   1.082       .  S
C409        C410   1.404       .  A
C409        H414   1.083       .  S
C410        C411   1.404       .  A
C411        C412   1.396       .  A
C411        H415   1.083       .  S
C412        H416   1.083       .  S
C417        C418   1.410       .  A
C417        C422   1.403       .  A
C417        H427   1.081       .  S
C418        C423   1.493       .  S
C418        C419   1.404       .  A
C419        C420   1.394       .  A
C419        H424   1.088       .  S
C420        C421   1.406       .  A
C420        H425   1.083       .  S
C421        C422   1.405       .  A
C422        H426   1.087       .  S
C423        C428   1.406       .  A
C423        C432   1.409       .  A
C428        C429   1.399       .  A
C428        H433   1.082       .  S
C429        C430   1.407       .  A
C429        H434   1.083       .  S
C430        C431   1.403       .  A
C431        C432   1.400       .  A
C431        H435   1.085       .  S
C432        H436   1.083       .  S
C437        C438   1.408       .  A
C437        C442   1.400       .  A
C437        H447   1.082       .  S
C438        C443   1.492       .  S
C438        C439   1.407       .  A
C439        C440   1.398       .  A
C439        H444   1.083       .  S
C440        C441   1.405       .  A
C440        H445   1.082       .  S
C441        C442   1.404       .  A
C442        H446   1.083       .  S
C443        C448   1.408       .  A
C443        C452   1.408       .  A
C448        C449   1.399       .  A
C448        H453   1.082       .  S
C449        C450   1.403       .  A
C449        H454   1.083       .  S
C450        C451   1.404       .  A
C451        C452   1.399       .  A
C451        H455   1.082       .  S
C452        H456   1.082       .  S
C457        C458   1.408       .  A
C457        C462   1.400       .  A
C457        H467   1.084       .  S
C458        C463   1.491       .  S
C458        C459   1.408       .  A
C459        C460   1.397       .  A
C459        H464   1.081       .  S
C460        C461   1.404       .  A
C460        H465   1.084   1_554  S
C461        C462   1.403       .  A
C462        H466   1.082       .  S
C463        C468   1.406       .  A
C463        C472   1.406       .  A
C468        C469   1.398       .  A
C468        H473   1.083       .  S
C469        C470   1.406       .  A
C469        H474   1.076       .  S
C470        C471   1.407       .  A
C471        C472   1.397       .  A
C471        H475   1.083       .  S
C472        H476   1.082       .  S
C477        C478   1.409       .  A
C477        C482   1.399   1_455  A
C477        H487   1.081       .  S
C478        C483   1.497       .  S
C478        C479   1.410       .  A
C479        C480   1.401   1_455  A
C479        H484   1.082       .  S
C480        C481   1.403       .  A
C480        H485   1.083       .  S
C481        C482   1.404       .  A
C482        H486   1.083       .  S
C483        C488   1.409       .  A
C483        C492   1.409       .  A
C488        C489   1.399       .  A
C488        H493   1.082       .  S
C489        C490   1.404       .  A
C489        H494   1.083       .  S
C490        C491   1.406       .  A
C491        C492   1.402       .  A
C491        H495   1.083       .  S
C492        H496   1.082       .  S
C497        C498   1.408       .  A
C497        C502   1.399       .  A
C497        H507   1.082       .  S
C498        C503   1.490       .  S
C498        C499   1.406       .  A
C499        C500   1.398       .  A
C499        H504   1.082       .  S
C500        C501   1.406       .  A
C500        H505   1.082       .  S
C501        C502   1.403       .  A
C502        H506   1.083       .  S
C503        C508   1.405       .  A
C503        C512   1.410       .  A
C508        C509   1.395       .  A
C508        H513   1.083       .  S
C509        C510   1.405       .  A
C509        H514   1.082       .  S
C510        C511   1.404       .  A
C511        C512   1.401       .  A
C511        H515   1.083       .  S
C512        H516   1.081       .  S
C517        C518   1.406       .  A
C517        C522   1.397       .  A
C517        H527   1.083       .  S
C518        C523   1.483       .  S
C518        C519   1.404       .  A
C519        C520   1.397       .  A
C519        H524   1.083       .  S
C520        C521   1.405       .  A
C520        H525   1.082       .  S
C521        C522   1.403       .  A
C522        H526   1.082       .  S
C523        C528   1.407       .  A
C523        C532   1.403       .  A
C528        C529   1.400       .  A
C528        H533   1.082       .  S
C529        C530   1.405       .  A
C529        H534   1.083       .  S
C530        C531   1.405       .  A
C531        C532   1.395       .  A
C531        H535   1.083       .  S
C532        H536   1.084       .  S
C537        C538   1.401       .  A
C537        C542   1.394       .  A
C537        H547   1.083       .  S
C538        C543   1.484   1_565  S
C538        C539   1.408   1_564  A
C539        C540   1.402       .  A
C539        H544   1.083       .  S
C540        C541   1.406   1_545  A
C540        H545   1.082       .  S
C541        C542   1.407   1_556  A
C542        H546   1.082       .  S
C543        C548   1.407   1_545  A
C543        C552   1.401       .  A
C548        C549   1.400       .  A
C548        H553   1.082       .  S
C549        C550   1.405   1_565  A
C549        H554   1.083       .  S
C550        C551   1.410       .  A
C551        C552   1.396       .  A
C551        H555   1.081       .  S
C552        H556   1.083       .  S
C557        C558   1.404       .  A
C557        C562   1.400   1_554  A
C557        H567   1.083       .  S
C558        C563   1.478   1_655  S
C558        C559   1.402   1_565  A
C559        C560   1.396   1_554  A
C559        H564   1.084       .  S
C560        C561   1.407   1_545  A
C560        H565   1.081       .  S
C561        C562   1.407       .  A
C562        H566   1.082       .  S
C563        C568   1.402       .  A
C563        C572   1.403   1_565  A
C568        C569   1.399       .  A
C568        H573   1.083       .  S
C569        C570   1.410   1_565  A
C569        H574   1.081       .  S
C570        C571   1.406       .  A
C571        C572   1.396       .  A
C571        H575   1.081       .  S
C572        H576   1.083   1_554  S
C577        C578   1.407       .  A
C577        C582   1.402       .  A
C577        H587   1.083       .  S
C578        C583   1.489       .  S
C578        C579   1.407       .  A
C579        C580   1.395       .  A
C579        H584   1.083       .  S
C580        C581   1.403       .  A
C580        H585   1.083       .  S
C581        C582   1.406       .  A
C582        H586   1.084       .  S
C583        C588   1.407       .  A
C583        C592   1.403       .  A
C588        C589   1.402       .  A
C588        H593   1.083       .  S
C589        C590   1.407       .  A
C589        H594   1.078       .  S
C590        C591   1.408       .  A
C591        C592   1.394       .  A
C591        H595   1.083   1_545  S
C592        H596   1.083       .  S
C597        C598   1.410       .  A
C597        C602   1.401       .  A
C597        H607   1.082       .  S
C598        C603   1.490       .  S
C598        C599   1.405       .  A
C599        C600   1.394       .  A
C599        H604   1.083       .  S
C600        C601   1.404       .  A
C600        H605   1.083       .  S
C601        C602   1.403       .  A
C602        H606   1.083       .  S
C603        C608   1.409       .  A
C603        C612   1.406       .  A
C608        C609   1.398       .  A
C608        H613   1.083       .  S
C609        C610   1.403       .  A
C609        H614   1.082       .  S
C610        C611   1.406       .  A
C611        C612   1.398       .  A
C611        H615   1.083       .  S
C612        H616   1.082       .  S
C617        C618   1.406       .  A
C617        C622   1.400       .  A
C617        H627   1.081       .  S
C618        C623   1.480       .  S
C618        C619   1.403       .  A
C619        C620   1.396       .  A
C619        H624   1.081       .  S
C620        C621   1.407       .  A
C620        H625   1.083       .  S
C621        C622   1.404       .  A
C622        H626   1.083       .  S
C623        C628   1.400       .  A
C623        C632   1.404       .  A
C628        C629   1.395       .  A
C628        H633   1.084       .  S
C629        C630   1.410       .  A
C629        H634   1.079       .  S
C630        C631   1.409       .  A
C631        C632   1.399       .  A
C631        H635   1.086       .  S
C632        H636   1.084       .  S
C637        C638   1.410   1_556  A
C637        C642   1.402       .  A
C637        H647   1.083       .  S
C638        C643   1.501       .  S
C638        C639   1.409       .  A
C639        C640   1.400       .  A
C639        H644   1.082       .  S
C640        C641   1.404   1_554  A
C640        H645   1.083       .  S
C641        C642   1.405       .  A
C642        H646   1.084       .  S
C643        C648   1.411   1_554  A
C643        C652   1.408       .  A
C648        C649   1.403   1_556  A
C648        H653   1.082       .  S
C649        C650   1.405       .  A
C649        H654   1.084   1_554  S
C650        C651   1.406       .  A
C651        C652   1.399       .  A
C651        H655   1.083       .  S
C652        H656   1.082       .  S
C657        C658   1.407   1_554  A
C657        C662   1.396       .  A
C657        H667   1.081       .  S
C658        C663   1.494       .  S
C658        C659   1.412       .  A
C659        C660   1.400       .  A
C659        H664   1.081       .  S
C660        C661   1.400   1_556  A
C660        H665   1.083       .  S
C661        C662   1.403       .  A
C662        H666   1.083       .  S
C663        C668   1.408       .  A
C663        C672   1.404       .  A
C668        C669   1.399       .  A
C668        H673   1.082   1_556  S
C669        C670   1.408       .  A
C669        H674   1.080       .  S
C670        C671   1.408       .  A
C671        C672   1.395       .  A
C671        H675   1.077       .  S
C672        H676   1.082       .  S
C677        C678   1.407       .  A
C677        C682   1.399       .  A
C677        H687   1.083       .  S
C678        C683   1.489       .  S
C678        C679   1.406       .  A
C679        C680   1.399   1_655  A
C679        H684   1.082       .  S
C680        C681   1.405       .  A
C680        H685   1.083       .  S
C681        C682   1.405   1_455  A
C682        H686   1.082       .  S
C683        C688   1.406       .  A
C683        C692   1.406       .  A
C688        C689   1.400       .  A
C688        H693   1.082       .  S
C689        C690   1.405       .  A
C689        H694   1.084       .  S
C690        C691   1.406       .  A
C691        C692   1.400       .  A
C691        H695   1.082       .  S
C692        H696   1.083       .  S
C697        C698   1.406       .  A
C697        C702   1.396       .  A
C697        H707   1.083       .  S
C698        C703   1.484       .  S
C698        C699   1.406       .  A
C699        C700   1.396       .  A
C699        H704   1.082       .  S
C700        C701   1.403       .  A
C700        H705   1.084       .  S
C701        C702   1.403       .  A
C702        H706   1.083       .  S
C703        C708   1.407       .  A
C703        C712   1.405       .  A
C708        C709   1.399       .  A
C708        H713   1.082       .  S
C709        C710   1.403       .  A
C709        H714   1.083       .  S
C710        C711   1.405       .  A
C711        C712   1.396       .  A
C711        H715   1.083       .  S
C712        H716   1.082       .  S
