geometry optimzed in LAMMPS
_audit_creation_date              2020-12-01 
_audit_creation_method            'lammps2cif' 
_symmetry_space_group_name_H-M    'P1' 
_symmetry_Int_Tables_number       1 
_symmetry_cell_setting            triclinic 
loop_ 
_symmetry_equiv_pos_as_xyz 
  x,y,z 
_cell_length_a                    43.7842905 
_cell_length_b                    46.62118723016002 
_cell_length_c                    43.82628131722679 
_cell_angle_alpha                 90.09853991371935 
_cell_angle_beta                  89.93909510704698 
_cell_angle_gamma                 90.22247340987722 
loop_ 
_atom_site_label 
_atom_site_type_symbol 
_atom_site_fract_x 
_atom_site_fract_y 
_atom_site_fract_z 
_atom_site_charge 
C1          C  0.49520071  0.29195004  0.13179986     0.31400
C2          C  0.53799175  0.24961856  0.13233168     0.31400
C3          C  0.49454934  0.27198476  0.15936856    -0.04800
C4          C  0.49282967  0.27065943  0.10495704    -0.05600
C5          C  0.52857223  0.30174555  0.12889715    -0.05400
C6          C  0.51630755  0.25039085  0.15980805    -0.04800
C7          C  0.51549972  0.24854556  0.10492702    -0.05600
C8          C  0.55035056  0.28060839  0.12970322    -0.05400
C9          C  0.50319286  0.22745295  0.17524814    -0.30800
N10         N  0.47456577  0.23438265  0.18404227     0.15700
C11         C  0.46904694  0.26123570  0.17399897    -0.30800
H12         H  0.44672476  0.27111769  0.17399771     0.17600
C13         C  0.52173714  0.24285717  0.07451723    -0.29800
N14         N  0.50362409  0.25944628  0.05703921     0.14400
C15         C  0.48673410  0.27671688  0.07485717    -0.29800
C16         C  0.57824950  0.29453735  0.13043896    -0.30100
N17         N  0.57401314  0.32351974  0.13240033     0.14900
H18         H  0.59985554  0.28375255  0.13244934     0.17500
C19         C  0.54352206  0.32768737  0.12832644    -0.30100
H20         H  0.53203912  0.34800929  0.12766138     0.17500
H21         H  0.47344813  0.29449261  0.06633315     0.17500
H22         H  0.51311322  0.20638027  0.17769184     0.17600
H23         H  0.53995790  0.22955356  0.06577280     0.17500
C24         C  0.96456276  0.99849042  0.13454008     0.31400
C25         C  0.01010567  0.45681474  0.12729569     0.31400
C26         C  0.95533230  0.46908238  0.13140290    -0.04800
C27         C  0.98365089  0.00076873  0.10449671    -0.05600
C28         C  0.98932321  0.99707375  0.15901275    -0.05400
C29         C  0.97622166  0.44744885  0.12733918    -0.04800
C30         C  0.00988400  0.47932950  0.10147571    -0.05600
C31         C  0.01099526  0.97575928  0.15550804    -0.05400
C32         C  0.95956323  0.42231661  0.12438394    -0.30800
N33         N  0.92948515  0.42763144  0.13002562     0.15700
C34         C  0.92687870  0.45667101  0.13217085    -0.30800
H35         H  0.90620744  0.46826090  0.13708950     0.17600
C36         C  0.01273458  0.47426688  0.07065618    -0.29800
N37         N  0.98922329  0.98966497  0.05505611     0.14400
C38         C  0.97345482  0.00616451  0.07499377    -0.29800
C39         C  0.03779119  0.98688388  0.16765704    -0.30100
N40         N  0.03303533  0.01350902  0.17896456     0.14900
H41         H  0.06015538  0.97744892  0.16534264     0.17500
C42         C  0.00351818  0.01995775  0.17352814    -0.30100
H43         H  0.99332196  0.04069571  0.17760899     0.17500
H44         H  0.95428353  0.01948212  0.06872597     0.17500
H45         H  0.96922385  0.40151059  0.11979145     0.17600
H46         H  0.02561883  0.45716567  0.06010622     0.17500
C47         C  0.48595523  0.22101693  0.45713292     0.31400
C48         C  0.53481372  0.25732767  0.44828783     0.31400
C49         C  0.48451990  0.23966953  0.42810471    -0.04800
C50         C  0.48515112  0.24787322  0.97913810    -0.05600
C51         C  0.51775669  0.20665743  0.45448988    -0.05400
C52         C  0.50926689  0.25801124  0.42446776    -0.04800
C53         C  0.51069179  0.26678992  0.97576641    -0.05600
C54         C  0.54270922  0.22529342  0.45149083    -0.05400
C55         C  0.49970010  0.28089027  0.40733285    -0.30800
N56         N  0.47038399  0.27710714  0.39916980     0.15700
C57         C  0.46061570  0.25217537  0.41173593    -0.30800
H58         H  0.43739862  0.24454328  0.40993545     0.17600
C59         C  0.52081925  0.27206454  0.00528792    -0.29800
N60         N  0.50173507  0.25884660  0.02516249     0.14400
C61         C  0.48054951  0.24378375  0.00977686    -0.29800
C62         C  0.56724424  0.20938902  0.44155328    -0.30100
N63         N  0.55732436  0.18280895  0.43416557     0.14900
H64         H  0.58912513  0.21799502  0.43449445     0.17500
C65         C  0.52735389  0.18117388  0.44147577    -0.30100
H66         H  0.51260006  0.16447743  0.43267340     0.17500
H67         H  0.46499026  0.22853091  0.02012023     0.17500
H68         H  0.51245406  0.30049251  0.40356588     0.17600
H69         H  0.54189747  0.28264091  0.01171084     0.17500
C70         C  0.96388736  0.49204490  0.44048776     0.31400
C71         C  0.01536046  0.02696248  0.44904302     0.31400
C72         C  0.95899159  0.02396947  0.44239842    -0.04800
C73         C  0.98215874  0.48994139  0.97420851    -0.05600
C74         C  0.98888579  0.49026278  0.41616575    -0.05400
C75         C  0.98405929  0.04212823  0.44409490    -0.04800
C76         C  0.00333463  0.00401916  0.97681776    -0.05600
C77         C  0.01422575  0.50774101  0.41930306    -0.05400
C78         C  0.97301073  0.06908843  0.43617122    -0.30800
N79         N  0.94207893  0.06789314  0.43232203     0.15700
C80         C  0.93352599  0.04037007  0.43758138    -0.30800
H81         H  0.91078184  0.03187074  0.43429559     0.17600
C82         C  0.00963773  0.00690384  0.00723315    -0.29800
N83         N  0.98871971  0.99191091  0.02309956     0.14400
C84         C  0.97325719  0.48298507  0.00378816    -0.29800
C85         C  0.03653041  0.49584691  0.40035429    -0.30100
N86         N  0.02544946  0.47155062  0.38725696     0.14900
H87         H  0.05977667  0.50313281  0.39746674     0.17500
C88         C  0.99653157  0.46802534  0.39695441    -0.30100
H89         H  0.98305291  0.44891557  0.39288305     0.17500
H90         H  0.95263725  0.47177890  0.01046052     0.17500
H91         H  0.98679780  0.08765145  0.43130505     0.17600
H92         H  0.02656967  0.02096081  0.01733262     0.17500
Fe93       Fe  0.60227978  0.34350124  0.30034196     1.65800
Fe94       Fe  0.62268632  0.39644787  0.34907486     1.73200
Fe95       Fe  0.66876017  0.37761907  0.28860002     1.54400
O96         O  0.67367484  0.33303389  0.28137293    -0.80300
O97         O  0.63326239  0.43397105  0.32685690    -0.78600
O98         O  0.63451040  0.31248676  0.30562864    -0.82800
O99         O  0.61196931  0.34717774  0.25404642    -0.77600
O100        O  0.69508750  0.37337625  0.32670074    -0.79400
O101        O  0.57584278  0.40297659  0.33445913    -0.82100
C102        C  0.62653410  0.36465142  0.23721972     0.98600
C103        C  0.66002583  0.31097767  0.29214874     1.06100
O104        O  0.63131656  0.37291476  0.31279682    -1.11100
O105        O  0.61178493  0.36164969  0.37681335    -0.73600
O106        O  0.58739294  0.33378230  0.34396974    -0.77000
O107        O  0.64588647  0.38216882  0.24785486    -0.77700
C108        C  0.59604911  0.33950838  0.37091389     0.97500
O109        O  0.56908827  0.37349155  0.29455834    -0.75700
O110        O  0.66862980  0.39234104  0.36557405    -0.80900
C111        C  0.65252574  0.44092423  0.30654424     1.00100
C112        C  0.69311333  0.38142578  0.35425048     1.06100
O113        O  0.66849019  0.42243117  0.29225672    -0.76500
C114        C  0.56039920  0.39429462  0.31102660     1.04400
Fe115      Fe  0.60248755  0.16456415  0.26344428     1.65800
Fe116      Fe  0.61752609  0.10461687  0.22357603     1.73200
Fe117      Fe  0.66299235  0.12676712  0.28281722     1.54400
O118        O  0.67056856  0.17175810  0.28575202    -0.80300
O119        O  0.62606825  0.06879614  0.24910054    -0.78600
O120        O  0.63813752  0.19078703  0.25244043    -0.82800
O121        O  0.61390467  0.16764995  0.30868004    -0.77600
O122        O  0.69082329  0.12584317  0.24542147    -0.79400
O123        O  0.57111187  0.10236169  0.24044635    -0.82100
C124        C  0.61774040  0.14749356  0.32741497     0.98600
C125        C  0.66090707  0.19307422  0.27011213     1.06100
O126        O  0.62784796  0.13138904  0.25616176    -1.11100
O127        O  0.60930611  0.13664038  0.19159395    -0.73600
O128        O  0.58567156  0.16841884  0.22028815    -0.77000
O129        O  0.63531552  0.12676701  0.32127277    -0.77700
C130        C  0.59489628  0.15985352  0.19465039     0.97500
O131        O  0.56768198  0.13814166  0.27475527    -0.75700
O132        O  0.66338506  0.10522171  0.20764192    -0.80900
C133        C  0.64518648  0.06283755  0.26971691     1.00100
C134        C  0.68833648  0.11564149  0.21857539     1.06100
O135        O  0.66090153  0.08193112  0.28340053    -0.76500
C136        C  0.55771418  0.11508948  0.26304004     1.04400
Fe137      Fe  0.40207807  0.34565119  0.25177766     1.65800
Fe138      Fe  0.38031455  0.40953365  0.22859890     1.73200
Fe139      Fe  0.34973284  0.38192980  0.29254285     1.54400
O140        O  0.33680751  0.33837515  0.29093652    -0.80300
O141        O  0.35723962  0.44039400  0.25259498    -0.78600
O142        O  0.36674156  0.31676074  0.25664007    -0.82800
O143        O  0.41159096  0.34169691  0.29637690    -0.77600
O144        O  0.31565844  0.39130551  0.26000615    -0.79400
O145        O  0.42244691  0.41938069  0.24956604    -0.82100
C146        C  0.40407640  0.35175873  0.32202865     0.98600
C147        C  0.34554393  0.31602865  0.27645348     1.06100
O148        O  0.37712554  0.37865959  0.25823414    -1.11100
O149        O  0.40502178  0.38794243  0.19519573    -0.73600
O150        O  0.39315189  0.34393336  0.20569386    -0.77000
O151        O  0.38260354  0.37007396  0.32535677    -0.77700
C152        C  0.40550260  0.36176160  0.18827570     0.97500
O153        O  0.44006953  0.37390344  0.24983860    -0.75700
O154        O  0.33741155  0.39603721  0.21301041    -0.80900
C155        C  0.35815806  0.44618691  0.28050712     1.00100
C156        C  0.31416907  0.39155269  0.23058577     1.06100
O157        O  0.36060164  0.42604596  0.29999760    -0.76500
C158        C  0.44332308  0.40084007  0.25581815     1.04400
Fe159      Fe  0.40494969  0.17144967  0.33181488     1.65800
Fe160      Fe  0.38341803  0.10697168  0.35796368     1.73200
Fe161      Fe  0.35067936  0.13420840  0.29341719     1.54400
O162        O  0.33908121  0.17800146  0.29547450    -0.80300
O163        O  0.36859796  0.07416523  0.33115443    -0.78600
O164        O  0.36818665  0.19877576  0.33096201    -0.82800
O165        O  0.40991786  0.17577598  0.28658282    -0.77600
O166        O  0.31690660  0.12553986  0.32553215    -0.79400
O167        O  0.42779201  0.10014168  0.34077165    -0.82100
C168        C  0.40157406  0.16548443  0.26137718     0.98600
C169        C  0.34710844  0.19991875  0.31112682     1.06100
O170        O  0.37945372  0.13754834  0.32767187    -1.11100
O171        O  0.40030838  0.13076858  0.39458147    -0.73600
O172        O  0.40326202  0.17502865  0.37800602    -0.77000
O173        O  0.38260829  0.14475157  0.25933785    -0.77700
C174        C  0.40503273  0.15712422  0.39920612     0.97500
O175        O  0.44348493  0.14533465  0.33092461    -0.75700
O176        O  0.33791551  0.11463135  0.37133637    -0.80900
C177        C  0.36251748  0.06927102  0.30363794     1.00100
C178        C  0.31490765  0.12079213  0.35426044     1.06100
O179        O  0.35812997  0.08986931  0.28507325    -0.76500
C180        C  0.44734769  0.11814831  0.33008072     1.04400
Fe181      Fe  0.10192956  0.40456239  0.24224585     1.65800
Fe182      Fe  0.12518651  0.34089202  0.21965364     1.73200
Fe183      Fe  0.15000111  0.36634183  0.28635871     1.54400
O184        O  0.16341714  0.40939593  0.28721029    -0.80300
O185        O  0.14620116  0.30935881  0.24435927    -0.78600
O186        O  0.13746443  0.43280255  0.25111693    -0.82800
O187        O  0.08828414  0.40741467  0.28624872    -0.77600
O188        O  0.18684761  0.35800550  0.25653971    -0.79400
O189        O  0.08186431  0.33120896  0.23782381    -0.82100
C190        C  0.09324658  0.39617112  0.31197496     0.98600
C191        C  0.15701993  0.43222210  0.27258452     1.06100
O192        O  0.12596880  0.37109020  0.24995419    -1.11100
O193        O  0.10330962  0.36310968  0.18501402    -0.73600
O194        O  0.11393621  0.40722465  0.19662660    -0.77000
O195        O  0.11412041  0.37742912  0.31631755    -0.77700
C196        C  0.10284804  0.38934238  0.17825585     0.97500
O197        O  0.06428671  0.37667585  0.23576881    -0.75700
O198        O  0.16894643  0.35497499  0.20783540    -0.80900
C199        C  0.14268505  0.30246816  0.27175999     1.00100
C200        C  0.19054391  0.35948386  0.22733766     1.06100
O201        O  0.13862564  0.32213502  0.29157198    -0.76500
C202        C  0.06074434  0.34993999  0.24244395     1.04400
Fe203      Fe  0.10138345  0.07438832  0.32554718     1.65800
Fe204      Fe  0.11865617  0.13974464  0.35338293     1.73200
Fe205      Fe  0.15549959  0.11354386  0.28979825     1.54400
O206        O  0.16743270  0.06935785  0.29102355    -0.80300
O207        O  0.13035353  0.17312162  0.32644109    -0.78600
O208        O  0.13948027  0.04907131  0.32752442    -0.82800
O209        O  0.09963300  0.06932016  0.27969380    -0.77600
O210        O  0.18793768  0.12178397  0.32315627    -0.79400
O211        O  0.07331846  0.14391658  0.33700004    -0.82100
C212        C  0.10737800  0.08142856  0.25514803     0.98600
C213        C  0.16020908  0.04760694  0.30736495     1.06100
O214        O  0.12526830  0.10946382  0.32288122    -1.11100
O215        O  0.10472885  0.11501331  0.38990064    -0.73600
O216        O  0.09952118  0.07134283  0.37180449    -0.77000
O217        O  0.12454411  0.10360048  0.25465722    -0.77700
C218        C  0.09916996  0.08877068  0.39365085     0.97500
O219        O  0.06210647  0.09872812  0.32235542    -0.75700
O220        O  0.16465165  0.13522452  0.36710050    -0.80900
C221        C  0.14058415  0.17868702  0.30039737     1.00100
C222        C  0.18850178  0.12832536  0.35152369     1.06100
O223        O  0.14873280  0.15847542  0.28240941    -0.76500
C224        C  0.05568430  0.12541497  0.32404316     1.04400
Fe225      Fe  0.89850569  0.40749359  0.28990114     1.65800
Fe226      Fe  0.88357714  0.35319798  0.33885481     1.73200
Fe227      Fe  0.83285175  0.37033227  0.28170967     1.54400
O228        O  0.82471696  0.41480721  0.27560234    -0.80300
O229        O  0.87361115  0.31566592  0.31646011    -0.78600
O230        O  0.86509601  0.43696261  0.29587132    -0.82800
O231        O  0.88753726  0.40193589  0.24405848    -0.77600
O232        O  0.80908392  0.37353529  0.32150112    -0.79400
O233        O  0.92958406  0.34822560  0.32181882    -0.82100
C234        C  0.87226144  0.38424274  0.22801725     0.98600
C235        C  0.83817048  0.43731999  0.28561074     1.06100
O236        O  0.87166817  0.37666173  0.30351553    -1.11100
O237        O  0.89430490  0.38799437  0.36633111    -0.73600
O238        O  0.91342682  0.41889802  0.33312983    -0.77000
O239        O  0.85324557  0.36688929  0.23950143    -0.77700
C240        C  0.90689696  0.41175802  0.36030830     0.97500
O241        O  0.93344540  0.37962449  0.28347906    -0.75700
O242        O  0.83887350  0.35584070  0.35840669    -0.80900
C243        C  0.85359840  0.30759288  0.29740615     1.00100
C244        C  0.81343475  0.36617915  0.34893087     1.06100
O245        O  0.83540162  0.32528250  0.28476006    -0.76500
C246        C  0.94357561  0.35838263  0.29827767     1.04400
Fe247      Fe  0.89334021  0.08513790  0.27848040     1.65800
Fe248      Fe  0.87844305  0.13895653  0.23003402     1.73200
Fe249      Fe  0.82960553  0.12242941  0.28890505     1.54400
O250        O  0.82200438  0.07756574  0.29566692    -0.80300
O251        O  0.87009978  0.17674444  0.25259142    -0.78600
O252        O  0.85953571  0.05637994  0.26974196    -0.82800
O253        O  0.88074322  0.08756912  0.32389660    -0.77600
O254        O  0.80460460  0.11848590  0.25006828    -0.79400
O255        O  0.92465300  0.14232325  0.24594939    -0.82100
C256        C  0.87161425  0.10845294  0.33992411     0.98600
C257        C  0.83379168  0.05546130  0.28281258     1.06100
O258        O  0.86703616  0.11597538  0.26554814    -1.11100
O259        O  0.88800278  0.10403599  0.20238775    -0.73600
O260        O  0.91087168  0.07605826  0.23586423    -0.77000
O261        O  0.85340122  0.12700903  0.32949635    -0.77700
C262        C  0.90332681  0.08195135  0.20871537     0.97500
O263        O  0.92755364  0.11373680  0.28704214    -0.75700
O264        O  0.83334090  0.13653668  0.21214798    -0.80900
C265        C  0.85014262  0.18490273  0.27160660     1.00100
C266        C  0.80840583  0.12561112  0.22240842     1.06100
O267        O  0.83174085  0.16750142  0.28465556    -0.76500
C268        C  0.93859947  0.13303054  0.26985127     1.04400
C269        C  0.82538983  0.26315200  0.27824991     0.25000
C270        C  0.85204197  0.27617818  0.29011660    -0.23100
C271        C  0.87765180  0.25856675  0.29571100     0.19900
C272        C  0.87649941  0.22903311  0.29007258     0.24900
C273        C  0.84969308  0.21597162  0.27919353    -0.23000
C274        C  0.82417739  0.23328942  0.27309052     0.19800
F275        F  0.79849947  0.22146173  0.26105293    -0.13000
F276        F  0.80044323  0.27920947  0.27176797    -0.15400
F277        F  0.90182915  0.21303649  0.29527470    -0.15400
F278        F  0.90432780  0.26994052  0.30603556    -0.13000
C279        C  0.82158716  0.47969298  0.25586246     0.25000
C280        C  0.82392154  0.46592687  0.28420865    -0.23100
C281        C  0.82296400  0.48262983  0.31100267     0.19900
C282        C  0.81990768  0.01243194  0.31301264     0.24900
C283        C  0.81975905  0.02660798  0.28478601    -0.23000
C284        C  0.81734028  0.01009922  0.25790006     0.19800
F285        F  0.81757984  0.02320537  0.23027103    -0.13000
F286        F  0.82277384  0.46416869  0.22967924    -0.15400
F287        F  0.82268941  0.02770172  0.33928058    -0.15400
F288        F  0.82572363  0.46984850  0.33867976    -0.13000
C289        C  0.02166160  0.12165802  0.27856993     0.25000
C290        C  0.02749517  0.13437404  0.30726690    -0.23100
C291        C  0.00564790  0.15348727  0.31910555     0.19900
C292        C  0.97723529  0.15689533  0.30419190     0.24900
C293        C  0.97046269  0.14147420  0.27721543    -0.23000
C294        C  0.99368914  0.12526320  0.26375040     0.19800
F295        F  0.98807372  0.11021225  0.23777119    -0.13000
F296        F  0.04263365  0.10424137  0.26545017    -0.15400
F297        F  0.95568667  0.17400018  0.31692906    -0.15400
F298        F  0.01075700  0.16707831  0.34603521    -0.13000
C299        C  0.02803372  0.33944183  0.28881976     0.25000
C300        C  0.03091868  0.34160640  0.25670740    -0.23100
C301        C  0.00409691  0.34268361  0.23940752     0.19900
C302        C  0.97555514  0.34464481  0.25360702     0.24900
C303        C  0.97260988  0.34601250  0.28562015    -0.23000
C304        C  0.99907843  0.34167800  0.30320610     0.19800
F305        F  0.99739208  0.34240232  0.33410968    -0.13000
F306        F  0.05345994  0.33780133  0.30639701    -0.15400
F307        F  0.95061884  0.34769347  0.23578242    -0.15400
F308        F  0.00542194  0.34366371  0.20857040    -0.13000
C309        C  0.13946680  0.26090066  0.30931348     0.25000
C310        C  0.14343065  0.27081234  0.27935855    -0.23100
C311        C  0.14731915  0.24980397  0.25603074     0.19900
C312        C  0.14683138  0.22014184  0.26251514     0.24900
C313        C  0.14251567  0.21026686  0.29247837    -0.23000
C314        C  0.13902680  0.23135534  0.31578975     0.19800
F315        F  0.13510551  0.22359409  0.34539070    -0.13000
F316        F  0.13575747  0.27977729  0.33263028    -0.15400
F317        F  0.14983185  0.20115562  0.23919996    -0.15400
F318        F  0.15125390  0.25777099  0.22650057    -0.13000
C319        C  0.16543025  0.46697790  0.31466462     0.25000
C320        C  0.16948084  0.45994969  0.28373378    -0.23100
C321        C  0.17918578  0.48153313  0.26352264     0.19900
C322        C  0.17953170  0.01043197  0.27024088     0.24900
C323        C  0.17288499  0.01848668  0.30056985    -0.23000
C324        C  0.17072285  0.99658707  0.32268162     0.19800
F325        F  0.16600908  0.00325947  0.35248848    -0.13000
F326        F  0.15655854  0.44660221  0.33494531    -0.15400
F327        F  0.18340690  0.03069029  0.24834953    -0.15400
F328        F  0.18443609  0.47521449  0.23374537    -0.13000
C329        C  0.26927917  0.15039220  0.36574921     0.25000
C330        C  0.28368805  0.12344301  0.36703463    -0.23100
C331        C  0.26553385  0.09882928  0.37099550     0.19900
C332        C  0.23349184  0.10084602  0.37016464     0.24900
C333        C  0.21916500  0.12755810  0.36576566    -0.23000
C334        C  0.23729900  0.15243516  0.36532603     0.19800
F335        F  0.22418179  0.17838001  0.36054022    -0.13000
F336        F  0.28621800  0.17449340  0.36130004    -0.15400
F337        F  0.21655850  0.07638150  0.37019531    -0.15400
F338        F  0.27875232  0.07254677  0.37178442    -0.13000
C339        C  0.26052904  0.40567414  0.21850786     0.25000
C340        C  0.28369066  0.38491050  0.21760100    -0.23100
C341        C  0.27540750  0.35596342  0.21327698     0.19900
C342        C  0.24451332  0.34759942  0.21328561     0.24900
C343        C  0.22143079  0.36813404  0.21688983    -0.23000
C344        C  0.22965278  0.39735306  0.21800793     0.19800
F345        F  0.20778510  0.41764487  0.22158579    -0.13000
F346        F  0.26778868  0.43375321  0.22265509    -0.15400
F347        F  0.23726083  0.31927354  0.21273724    -0.15400
F348        F  0.29731304  0.33545429  0.21231755    -0.13000
C349        C  0.33343974  0.27973285  0.31662536     0.25000
C350        C  0.33386899  0.28721610  0.28548869    -0.23100
C351        C  0.33089103  0.26518378  0.26367409     0.19900
C352        C  0.33035990  0.23628061  0.27264655     0.24900
C353        C  0.33469645  0.22877480  0.30348704    -0.23000
C354        C  0.33451682  0.25082954  0.32551728     0.19800
F355        F  0.33801548  0.24451635  0.35555149    -0.13000
F356        F  0.33595495  0.30033122  0.33841445    -0.15400
F357        F  0.32981542  0.21571507  0.25067286    -0.15400
F358        F  0.33121160  0.27152020  0.23345288    -0.13000
C359        C  0.34657537  0.02844171  0.26775239     0.25000
C360        C  0.36130100  0.03807764  0.29442440    -0.23100
C361        C  0.37448303  0.01704683  0.31373522     0.19900
C362        C  0.37992536  0.48951793  0.30738983     0.24900
C363        C  0.35729309  0.47741503  0.28874758    -0.23000
C364        C  0.33732445  0.49626453  0.27322904     0.19800
F365        F  0.31534393  0.48541389  0.25462291    -0.13000
F366        F  0.33278357  0.04746657  0.24888188    -0.15400
F367        F  0.40068008  0.47239724  0.32132140    -0.15400
F368        F  0.38960184  0.02472879  0.33954047    -0.13000
C369        C  0.50285311  0.10407249  0.32756613     0.25000
C370        C  0.47469438  0.10787953  0.31301312    -0.23100
C371        C  0.47391488  0.10746696  0.28077212     0.19900
C372        C  0.50103663  0.10577159  0.26347103     0.24900
C373        C  0.52946807  0.10406435  0.27811571    -0.23000
C374        C  0.52981302  0.10153124  0.31029420     0.19800
F375        F  0.55690074  0.09967424  0.32520433    -0.13000
F376        F  0.50463560  0.10536022  0.35845668    -0.15400
F377        F  0.49972354  0.10895397  0.23271845    -0.15400
F378        F  0.44699953  0.11130270  0.26604377    -0.13000
C379        C  0.76313906  0.14484463  0.19552680     0.25000
C380        C  0.78120632  0.12109555  0.20294695    -0.23100
C381        C  0.76734219  0.09373608  0.20361511     0.19900
C382        C  0.73545572  0.09095584  0.20269345     0.24900
C383        C  0.71711129  0.11551299  0.20099780    -0.23000
C384        C  0.73118820  0.14211377  0.19483714     0.19800
F385        F  0.71395114  0.16620286  0.19323879    -0.13000
F386        F  0.77588898  0.17139648  0.19430677    -0.15400
F387        F  0.72259913  0.06506658  0.20901684    -0.15400
F388        F  0.78431754  0.07030969  0.21043092    -0.13000
C389        C  0.49900673  0.41618964  0.25557732     0.25000
C390        C  0.47227114  0.40958998  0.27189257    -0.23100
C391        C  0.47488558  0.40563426  0.30376386     0.19900
C392        C  0.50380861  0.40407052  0.31809705     0.24900
C393        C  0.53077830  0.40752320  0.30100621    -0.23000
C394        C  0.52775052  0.41567942  0.27012224     0.19800
F395        F  0.55315848  0.42116780  0.25344762    -0.13000
F396        F  0.49756555  0.42141145  0.22516505    -0.15400
F397        F  0.50543997  0.39646753  0.34792768    -0.15400
F398        F  0.44940171  0.40099998  0.32069120    -0.13000
C399        C  0.73456416  0.35057647  0.37471018     0.25000
C400        C  0.72204374  0.37830799  0.37188302    -0.23100
C401        C  0.74221133  0.40184123  0.37323395     0.19900
C402        C  0.77403733  0.39756923  0.37219558     0.24900
C403        C  0.78622124  0.36975059  0.36895948    -0.23000
C404        C  0.76635412  0.34630302  0.37282113     0.19800
F405        F  0.77719682  0.31919776  0.36986385    -0.13000
F406        F  0.71579482  0.32733732  0.37465966    -0.15400
F407        F  0.79273341  0.42074749  0.36961938    -0.15400
F408        F  0.73119562  0.42890525  0.37062427    -0.13000
C409        C  0.67405038  0.27147940  0.25688991     0.25000
C410        C  0.67206714  0.28190387  0.28687462    -0.23100
C411        C  0.67358644  0.26241877  0.31127214     0.19900
C412        C  0.67422064  0.23282285  0.30570224     0.24900
C413        C  0.67276090  0.22234656  0.27561255    -0.23000
C414        C  0.67439716  0.24193411  0.25128296     0.19800
F415        F  0.67344175  0.23245120  0.22200287    -0.13000
F416        F  0.67153667  0.28966668  0.23296226    -0.15400
F417        F  0.67214777  0.21454162  0.32970947    -0.15400
F418        F  0.67144807  0.27199167  0.34047736    -0.13000
C419        C  0.65177646  0.49302347  0.32180833     0.25000
C420        C  0.65565774  0.47191716  0.29900468    -0.23100
C421        C  0.66009248  0.48083180  0.26865399     0.19900
C422        C  0.65293152  0.01172041  0.25401601     0.24900
C423        C  0.64918685  0.03217877  0.27742602    -0.23000
C424        C  0.64713554  0.02280356  0.30771865     0.19800
F425        F  0.64333793  0.04204516  0.33069377    -0.13000
F426        F  0.64733471  0.48534845  0.35135988    -0.15400
F427        F  0.65500211  0.02023134  0.22446069    -0.15400
F428        F  0.66380235  0.46119168  0.24604954    -0.13000
C429        C  0.04286774  0.07579741  0.45443004     0.25000
C430        C  0.04410890  0.04567207  0.45295658    -0.23100
C431        C  0.07315423  0.03368052  0.44819926     0.19900
C432        C  0.09480027  0.04933713  0.43154889     0.24900
C433        C  0.08846339  0.07785808  0.42332633    -0.23000
C434        C  0.06460103  0.09204077  0.43851192     0.19800
F435        F  0.06012052  0.12060881  0.43474978    -0.13000
F436        F  0.02110922  0.08925388  0.47111266    -0.15400
F437        F  0.11970758  0.03576291  0.42011907    -0.15400
F438        F  0.07866674  0.00580763  0.45516413    -0.13000
C439        C  0.04351628  0.41498884  0.32941244     0.25000
C440        C  0.07393147  0.40787210  0.33672418    -0.23100
C441        C  0.08729479  0.42037985  0.36271126     0.19900
C442        C  0.07146653  0.44138700  0.37941851     0.24900
C443        C  0.04202750  0.45005821  0.37042814    -0.23000
C444        C  0.02791401  0.43595911  0.34583322     0.19800
F445        F  0.99956475  0.44374102  0.33648228    -0.13000
F446        F  0.02981375  0.40345951  0.30442697    -0.15400
F447        F  0.08496776  0.45339255  0.40420799    -0.15400
F448        F  0.11640685  0.41389805  0.37058683    -0.13000
C449        C  0.91356340  0.46196621  0.37857248     0.25000
C450        C  0.91383148  0.43261759  0.38526260    -0.23100
C451        C  0.92211699  0.42411022  0.41498914     0.19900
C452        C  0.93407698  0.44426576  0.43601537     0.24900
C453        C  0.93746016  0.47346089  0.42784285    -0.23000
C454        C  0.92496784  0.48197512  0.39923294     0.19800
F455        F  0.92949453  0.50875404  0.38798850    -0.13000
F456        F  0.90453273  0.47141275  0.35068204    -0.15400
F457        F  0.94564782  0.43443103  0.46265476    -0.15400
F458        F  0.92125499  0.39597391  0.42281722    -0.13000
C459        C  0.91572787  0.11869288  0.37208266     0.25000
C460        C  0.88489818  0.11086742  0.37055863    -0.23100
C461        C  0.87180921  0.09610144  0.39510975     0.19900
C462        C  0.89043555  0.08581069  0.41866345     0.24900
C463        C  0.92265282  0.08840098  0.41671848    -0.23000
C464        C  0.93471818  0.10721298  0.39446776     0.19800
F465        F  0.96511483  0.11204318  0.39165349    -0.13000
F466        F  0.92838654  0.13403009  0.34909663    -0.15400
F467        F  0.87717546  0.07106191  0.44186133    -0.15400
F468        F  0.84170172  0.08903919  0.39466405    -0.13000
C469        C  0.57706041  0.32676418  0.42438357     0.25000
C470        C  0.58771483  0.31856647  0.39530444    -0.23100
C471        C  0.58708960  0.28945078  0.38760932     0.19900
C472        C  0.57282161  0.26948455  0.40638552     0.24900
C473        C  0.56008727  0.27726467  0.43516612    -0.23000
C474        C  0.56325273  0.30640394  0.44409313     0.19800
F475        F  0.54939368  0.31620835  0.46968640    -0.13000
F476        F  0.57726474  0.35486040  0.43252799    -0.15400
F477        F  0.56631155  0.24387519  0.39309667    -0.15400
F478        F  0.59776389  0.28044945  0.36007975    -0.13000
C479        C  0.44080998  0.15443027  0.44341617     0.25000
C480        C  0.41609536  0.16791873  0.42897842    -0.23100
C481        C  0.40816576  0.19579203  0.43859368     0.19900
C482        C  0.42861963  0.21179851  0.45646575     0.24900
C483        C  0.45807959  0.20098273  0.46144829    -0.23000
C484        C  0.46074740  0.17083212  0.46146751     0.19800
F485        F  0.48324272  0.15756219  0.47729126    -0.13000
F486        F  0.44802930  0.12680721  0.43682853    -0.15400
F487        F  0.42193079  0.23939722  0.46371428    -0.15400
F488        F  0.38287444  0.20875629  0.42733044    -0.13000
C489        C  0.46786689  0.31222412  0.35793256     0.25000
C490        C  0.45333641  0.29794890  0.38206062    -0.23100
C491        C  0.42314504  0.30558836  0.38978813     0.19900
C492        C  0.40739401  0.32621335  0.37243206     0.24900
C493        C  0.42186610  0.33961128  0.34752318    -0.23000
C494        C  0.45269699  0.33306372  0.34141971     0.19800
F495        F  0.46731775  0.34452056  0.31695347    -0.13000
F496        F  0.49638794  0.30459932  0.34887353    -0.15400
F497        F  0.37751231  0.33137744  0.37846257    -0.15400
F498        F  0.40884622  0.29291134  0.41373290    -0.13000
C499        C  0.61542533  0.14708162  0.38462803     0.25000
C500        C  0.60088132  0.14952119  0.35622830    -0.23100
C501        C  0.57044340  0.15890517  0.35494401     0.19900
C502        C  0.55520629  0.16698654  0.38118972     0.24900
C503        C  0.57044787  0.16712504  0.40933016    -0.23000
C504        C  0.60039712  0.15648304  0.41110919     0.19800
F505        F  0.61550765  0.15686189  0.43810957    -0.13000
F506        F  0.64488207  0.13828105  0.38632409    -0.15400
F507        F  0.52655816  0.17775040  0.37844847    -0.15400
F508        F  0.55597814  0.16249052  0.32787435    -0.13000
C509        C  0.07886626  0.01938477  0.21081745     0.25000
C510        C  0.05590789  0.03177908  0.19287729    -0.23100
C511        C  0.05502287  0.06207475  0.19040278     0.19900
C512        C  0.07484544  0.07936279  0.20790363     0.24900
C513        C  0.09603479  0.06660062  0.22758702    -0.23000
C514        C  0.09889407  0.03652307  0.22739036     0.19800
F515        F  0.11869208  0.02341493  0.24657569    -0.13000
F516        F  0.08008569  0.99056633  0.21501333    -0.15400
F517        F  0.07146236  0.10828352  0.20767943    -0.15400
F518        F  0.03445826  0.07503842  0.17192492    -0.13000
C519        C  0.06485733  0.43782669  0.12038284     0.25000
C520        C  0.03392930  0.43261812  0.12859287    -0.23100
C521        C  0.02821713  0.40887963  0.14801881     0.19900
C522        C  0.05150018  0.39078758  0.15713870     0.24900
C523        C  0.08185889  0.39932467  0.15403718    -0.23000
C524        C  0.08866262  0.42223350  0.13435261     0.19800
F525        F  0.11810559  0.43047575  0.13005027    -0.13000
F526        F  0.07240595  0.46083049  0.10299255    -0.15400
F527        F  0.04423188  0.36789940  0.17467906    -0.15400
F528        F  0.00162088  0.40581163  0.16349926    -0.13000
C529        C  0.91050670  0.03210451  0.19170517     0.25000
C530        C  0.91232831  0.06126300  0.18464985    -0.23100
C531        C  0.92597912  0.06958365  0.15687614     0.19900
C532        C  0.94013757  0.04898437  0.13786290     0.24900
C533        C  0.94061725  0.01978193  0.14641366    -0.23000
C534        C  0.92490894  0.01190548  0.17358720     0.19800
F535        F  0.92713359  0.98510676  0.18549470    -0.13000
F536        F  0.89685388  0.02315760  0.21791998    -0.15400
F537        F  0.95621607  0.05813242  0.11326827    -0.15400
F538        F  0.92808622  0.09778878  0.14957075    -0.13000
C539        C  0.86375528  0.40718184  0.17799695     0.25000
C540        C  0.87704447  0.38507432  0.19484097    -0.23100
C541        C  0.90144028  0.37001438  0.18206352     0.19900
C542        C  0.91766537  0.38177623  0.15752549     0.24900
C543        C  0.90781625  0.40780635  0.14400604    -0.23000
C544        C  0.87813871  0.41738161  0.15165054     0.19800
F545        F  0.86438496  0.43855841  0.13561905    -0.13000
F546        F  0.83842212  0.42059530  0.18858472    -0.15400
F547        F  0.94409468  0.36884397  0.14934881    -0.15400
F548        F  0.91101005  0.34523676  0.19492079    -0.13000
C549        C  0.55496958  0.19686379  0.12995411     0.25000
C550        C  0.56144674  0.22580620  0.13796626    -0.23100
C551        C  0.58388486  0.23054654  0.16074073     0.19900
C552        C  0.59942142  0.20796697  0.17400034     0.24900
C553        C  0.58993825  0.17972720  0.16905297    -0.23000
C554        C  0.56867705  0.17403985  0.14591438     0.19800
F555        F  0.55844177  0.14685029  0.14140061    -0.13000
F556        F  0.53187659  0.19045494  0.11049499    -0.15400
F557        F  0.61994855  0.21398263  0.19631718    -0.15400
F558        F  0.58687924  0.25618750  0.17506950    -0.13000
C559        C  0.47968341  0.33584362  0.16133787     0.25000
C560        C  0.47238498  0.31620108  0.13771198    -0.23100
C561        C  0.44169637  0.31529895  0.12746711     0.19900
C562        C  0.41925239  0.33219702  0.14192586     0.24900
C563        C  0.42743763  0.35127679  0.16543647    -0.23000
C564        C  0.45815730  0.35445319  0.17304073     0.19800
F565        F  0.46684341  0.37251795  0.19572384    -0.13000
F566        F  0.50646211  0.33431749  0.17683496    -0.15400
F567        F  0.38944458  0.32879032  0.13419761    -0.15400
F568        F  0.43246822  0.29570284  0.10651348    -0.13000
C569        C  0.58178653  0.36719235  0.16510654     0.25000
C570        C  0.59383156  0.34276278  0.14988155    -0.23100
C571        C  0.62347418  0.33392386  0.15863481     0.19900
C572        C  0.63636264  0.34379936  0.18596607     0.24900
C573        C  0.62057309  0.36342030  0.20423454    -0.20600
C574        C  0.59484132  0.37690936  0.19231622     0.19800
F575        F  0.58107145  0.39823692  0.20809629    -0.13000
F576        F  0.55642806  0.38090177  0.15531019    -0.15400
F577        F  0.66326556  0.33276982  0.19559740    -0.15400
F578        F  0.63935721  0.31455888  0.14191693    -0.13000
C579        C  0.43294078  0.22871896  0.22095719     0.25000
C580        C  0.45273815  0.21633638  0.19957072    -0.23100
C581        C  0.45123209  0.18635542  0.19456634     0.19900
C582        C  0.43196127  0.16899478  0.21255433     0.24900
C583        C  0.41357717  0.18157310  0.23506084    -0.23000
C584        C  0.41327409  0.21170575  0.23792093     0.19800
F585        F  0.39623429  0.22461347  0.25988535    -0.13000
F586        F  0.43441533  0.25717751  0.22749438    -0.15400
F587        F  0.43291909  0.14005343  0.20948802    -0.15400
F588        F  0.46873200  0.17381593  0.17279989    -0.13000
C589        C  0.49511993  0.29573805  0.63284329     0.31400
C590        C  0.53517174  0.25135325  0.63801128     0.31400
C591        C  0.49062549  0.27624452  0.66067463    -0.04800
C592        C  0.49423061  0.27391842  0.60625605    -0.05600
C593        C  0.52931200  0.30396754  0.63289429    -0.05400
C594        C  0.51113755  0.25371110  0.66339990    -0.04800
C595        C  0.51524307  0.25055830  0.60874110    -0.05600
C596        C  0.54925386  0.28143069  0.63525449    -0.05400
C597        C  0.49540895  0.23138203  0.67741668    -0.30800
N598        N  0.46626063  0.23925450  0.68323907     0.15700
C599        C  0.46320710  0.26637031  0.67275271    -0.30800
H600        H  0.44151050  0.27709654  0.67064894     0.17600
C601        C  0.52324216  0.24349923  0.57905353    -0.29800
N602        N  0.50764744  0.26052918  0.55964615     0.14400
C603        C  0.49069839  0.27935112  0.57560469    -0.29800
C604        C  0.57833863  0.29247311  0.63377366    -0.30100
N605        N  0.57727149  0.32166818  0.63320538     0.14900
H606        H  0.59858161  0.27960442  0.63565639     0.17500
C607        C  0.54710307  0.32845130  0.63012214    -0.30100
H608        H  0.53817182  0.34979615  0.62744471     0.17500
H609        H  0.47852663  0.29716241  0.56561286     0.17500
H610        H  0.50432448  0.21006118  0.68088316     0.17600
H611        H  0.54077413  0.22854417  0.57212364     0.17500
C612        C  0.96097777  0.00204897  0.63264132     0.31400
C613        C  0.00606971  0.45768530  0.62494506     0.31400
C614        C  0.95075118  0.46798831  0.62740869    -0.04800
C615        C  0.98122998  0.00429429  0.60334019    -0.05600
C616        C  0.98507562  0.00104424  0.65790071    -0.05400
C617        C  0.97258171  0.44723186  0.62384167    -0.04800
C618        C  0.00590543  0.47982223  0.59878704    -0.05600
C619        C  0.00710943  0.97992014  0.65528122    -0.05400
C620        C  0.95714434  0.42151324  0.62076087    -0.30800
N621        N  0.92687786  0.42556750  0.62658155     0.15700
C622        C  0.92285401  0.45445623  0.62868404    -0.30800
H623        H  0.90172235  0.46502209  0.63444458     0.17600
C624        C  0.01049955  0.47449786  0.56826871    -0.29800
N625        N  0.99099366  0.99486953  0.55424683     0.14400
C626        C  0.97319606  0.01040535  0.57334978    -0.29800
C627        C  0.03348149  0.99144755  0.66787260    -0.30100
N628        N  0.02807867  0.01812152  0.67877116     0.14900
H629        H  0.05602887  0.98219150  0.66603233     0.17500
C630        C  0.99863438  0.02420917  0.67252480    -0.30100
H631        H  0.98814377  0.04488003  0.67609596     0.17500
H632        H  0.95420574  0.02345168  0.56597301     0.17500
H633        H  0.96789386  0.40107789  0.61666291     0.17600
H634        H  0.02458965  0.45774474  0.55865456     0.17500
C635        C  0.48012662  0.22584404  0.95341865     0.31400
C636        C  0.52904572  0.26237012  0.94588220     0.31400
C637        C  0.47935878  0.24500374  0.92473269    -0.04800
C638        C  0.49128707  0.24355689  0.48231059    -0.05600
C639        C  0.51208884  0.21150953  0.95099491    -0.05400
C640        C  0.50401215  0.26338661  0.92167240    -0.04800
C641        C  0.51665495  0.26242788  0.47818828    -0.05600
C642        C  0.53675065  0.23031301  0.94841626    -0.05400
C643        C  0.49528817  0.28546990  0.90295448    -0.30800
N644        N  0.46642187  0.28102177  0.89353351     0.15700
C645        C  0.45632144  0.25632692  0.90639536    -0.30800
H646        H  0.43334458  0.24832829  0.90367562     0.17600
C647        C  0.52611102  0.26964867  0.50747642    -0.29800
N648        N  0.50658517  0.25766614  0.52782894     0.14400
C649        C  0.48595098  0.24133963  0.51305374    -0.29800
C650        C  0.56250721  0.21431031  0.94314313    -0.30100
N651        N  0.55429359  0.18657174  0.93865596     0.14900
H652        H  0.58492185  0.22303582  0.93831838     0.17500
C653        C  0.52367032  0.18470388  0.94380672    -0.30100
H654        H  0.51040454  0.16577291  0.93927385     0.17500
H655        H  0.47006952  0.22683002  0.52408616     0.17500
H656        H  0.50808237  0.30499843  0.89881891     0.17600
H657        H  0.54692100  0.28078202  0.51366648     0.17500
C658        C  0.96434686  0.49443206  0.94391416     0.31400
C659        C  0.00955881  0.02533127  0.95079345     0.31400
C660        C  0.95302411  0.02212719  0.94456307    -0.04800
C661        C  0.98201559  0.48649254  0.47032634    -0.05600
C662        C  0.99022373  0.49254477  0.92051187    -0.05400
C663        C  0.97809071  0.04025515  0.94723880    -0.04800
C664        C  0.00850516  0.00675507  0.47601361    -0.05600
C665        C  0.01512053  0.51085655  0.92376649    -0.05400
C666        C  0.96731113  0.06742271  0.94051387    -0.30800
N667        N  0.93666349  0.06639224  0.93544514     0.15700
C668        C  0.92776972  0.03871936  0.93917037    -0.30800
H669        H  0.90524182  0.03043362  0.93411127     0.17600
C670        C  0.01335576  0.01104056  0.50662357    -0.29800
N671        N  0.99170987  0.99667538  0.52229024     0.14400
C672        C  0.97204076  0.48112537  0.49999697    -0.29800
C673        C  0.03901950  0.49793886  0.90783831    -0.30100
N674        N  0.02944285  0.47245229  0.89655163     0.14900
H675        H  0.06202642  0.50583096  0.90511910     0.17500
C676        C  0.00008590  0.46886209  0.90466866    -0.30100
H677        H  0.98735420  0.44918045  0.90124757     0.17500
H678        H  0.95056801  0.47139158  0.50657860     0.17500
H679        H  0.98117077  0.08615264  0.93685095     0.17600
H680        H  0.02989196  0.02546502  0.51678581     0.17500
Fe681      Fe  0.60262849  0.34442122  0.79752837     1.65800
Fe682      Fe  0.62001435  0.39935266  0.84556037     1.73200
Fe683      Fe  0.66950941  0.37910986  0.78780973     1.54400
O684        O  0.67650793  0.33412836  0.78415470    -0.80300
O685        O  0.63363681  0.43627176  0.82387122    -0.78600
O686        O  0.63500461  0.31371577  0.80439706    -0.82800
O687        O  0.61387197  0.34734470  0.75155748    -0.77600
O688        O  0.69363260  0.37779955  0.82722613    -0.79400
O689        O  0.57477536  0.40655446  0.82714280    -0.82100
C690        C  0.63010077  0.36348482  0.73475620     0.98600
C691        C  0.66212017  0.31221642  0.79444021     1.06100
O692        O  0.63076300  0.37463107  0.81041329    -1.11100
O693        O  0.60536510  0.36631404  0.87395592    -0.73600
O694        O  0.58664914  0.33507191  0.84089125    -0.77000
O695        O  0.64942499  0.38089020  0.74551318    -0.77700
C696        C  0.59163698  0.34305332  0.86812748     0.97500
O697        O  0.56893946  0.37377498  0.79004184    -0.75700
O698        O  0.66434648  0.39407011  0.86546776    -0.80900
C699        C  0.65255890  0.44294721  0.80317736     1.00100
C700        C  0.68979163  0.38450609  0.85491915     1.06100
O701        O  0.66781110  0.42417156  0.78850555    -0.76500
C702        C  0.55997440  0.39597558  0.80418994     1.04400
Fe703      Fe  0.60298570  0.16652902  0.77712742     1.65800
Fe704      Fe  0.61499969  0.10731469  0.73420908     1.73200
Fe705      Fe  0.66391530  0.12712854  0.79210457     1.54400
O706        O  0.67299124  0.17177363  0.79721180    -0.80300
O707        O  0.62387479  0.07047270  0.75874453    -0.78600
O708        O  0.63901396  0.19279270  0.76723340    -0.82800
O709        O  0.61378397  0.16632315  0.82307965    -0.77600
O710        O  0.68921368  0.12766717  0.75291175    -0.79400
O711        O  0.56919244  0.10607812  0.75119048    -0.82100
C712        C  0.62154975  0.14620622  0.84080981     0.98600
C713        C  0.66304632  0.19382953  0.78309419     1.06100
O714        O  0.62715889  0.13302348  0.76761793    -1.11100
O715        O  0.60529230  0.13983679  0.70310040    -0.73600
O716        O  0.58755067  0.17342623  0.73384582    -0.77000
O717        O  0.63908186  0.12617968  0.83227750    -0.77700
C718        C  0.59306715  0.16401722  0.70740295     0.97500
O719        O  0.56633552  0.14121369  0.78638968    -0.75700
O720        O  0.65983149  0.10785870  0.71621236    -0.80900
C721        C  0.64413758  0.06355888  0.77800896     1.00100
C722        C  0.68511122  0.11853633  0.72583269     1.06100
O723        O  0.66108298  0.08216030  0.79103923    -0.76500
C724        C  0.55511803  0.11968417  0.77258858     1.04400
Fe725      Fe  0.39679267  0.34802969  0.74798254     1.65800
Fe726      Fe  0.37822153  0.41244581  0.72388196     1.73200
Fe727      Fe  0.34660947  0.38721512  0.78879327     1.54400
O728        O  0.33328092  0.34348742  0.78900834    -0.80300
O729        O  0.35830659  0.44527030  0.74717323    -0.78600
O730        O  0.35940096  0.32107530  0.75247505    -0.82800
O731        O  0.40542605  0.34421977  0.79276254    -0.77600
O732        O  0.31239212  0.39535131  0.75649999    -0.79400
O733        O  0.42139232  0.42066223  0.74345690    -0.82100
C734        C  0.40013873  0.35642533  0.81791388     0.98600
C735        C  0.33933465  0.32095149  0.77346879     1.06100
O736        O  0.37382198  0.38253139  0.75423282    -1.11100
O737        O  0.40110332  0.38956177  0.69052457    -0.73600
O738        O  0.38918016  0.34571113  0.70165820    -0.77000
O739        O  0.38050250  0.37654955  0.82097443    -0.77700
C740        C  0.40183760  0.36330273  0.68417320     0.97500
O741        O  0.43655812  0.37436982  0.74594183    -0.75700
O742        O  0.33425025  0.40021664  0.70950532    -0.80900
C743        C  0.35588471  0.45184306  0.77479722     1.00100
C744        C  0.31110812  0.39518257  0.72711530     1.06100
O745        O  0.35588711  0.43209220  0.79501244    -0.76500
C746        C  0.44148024  0.40144943  0.75003858     1.04400
Fe747      Fe  0.39165882  0.17952437  0.82983254     1.65800
Fe748      Fe  0.37544304  0.11390568  0.85616941     1.73200
Fe749      Fe  0.33989128  0.13916899  0.79190230     1.54400
O750        O  0.32613122  0.18287943  0.79304071    -0.80300
O751        O  0.36198842  0.08064344  0.83008894    -0.78600
O752        O  0.35332681  0.20467962  0.82919611    -0.82800
O753        O  0.39623808  0.18436614  0.78408873    -0.77600
O754        O  0.30722189  0.12901483  0.82485269    -0.79400
O755        O  0.41991074  0.10927835  0.83877222    -0.82100
C756        C  0.38887138  0.17289898  0.75903444     0.98600
C757        C  0.33302487  0.20526189  0.80861418     1.06100
O758        O  0.36883382  0.14409482  0.82577771    -1.11100
O759        O  0.39186896  0.13829291  0.89206229    -0.73600
O760        O  0.38958252  0.18272826  0.87620083    -0.77000
O761        O  0.37126470  0.15099676  0.75754128    -0.77700
C762        C  0.39438889  0.16479207  0.89693031     0.97500
O763        O  0.43169280  0.15553455  0.82932130    -0.75700
O764        O  0.32996271  0.11919795  0.87023593    -0.80900
C765        C  0.35469928  0.07471598  0.80322023     1.00100
C766        C  0.30627090  0.12400121  0.85363794     1.06100
O767        O  0.34907624  0.09470508  0.78413901    -0.76500
C768        C  0.43793878  0.12870712  0.82831171     1.04400
Fe769      Fe  0.10037658  0.40959908  0.74464433     1.65800
Fe770      Fe  0.12204637  0.34518899  0.72189586     1.73200
Fe771      Fe  0.15149002  0.37220831  0.78635079     1.54400
O772        O  0.16566363  0.41534863  0.78428687    -0.80300
O773        O  0.14289238  0.31401759  0.74723825    -0.78600
O774        O  0.13628912  0.43777767  0.75013317    -0.82800
O775        O  0.09015156  0.41353204  0.78943809    -0.77600
O776        O  0.18615394  0.36165769  0.75496828    -0.79400
O777        O  0.07902514  0.33640377  0.74127504    -0.82100
C778        C  0.09736663  0.40320320  0.81506439     0.98600
C779        C  0.15761149  0.43787250  0.76978161     1.06100
O780        O  0.12483165  0.37613169  0.75144648    -1.11100
O781        O  0.09966818  0.36702620  0.68754390    -0.73600
O782        O  0.10944350  0.41157449  0.69848010    -0.77000
O783        O  0.11863713  0.38483463  0.81841250    -0.77700
C784        C  0.09859635  0.39317136  0.68061626     0.97500
O785        O  0.06194481  0.38209849  0.74134554    -0.75700
O786        O  0.16560758  0.35782711  0.70752416    -0.80900
C787        C  0.13964295  0.30811964  0.77496746     1.00100
C788        C  0.18838224  0.36205257  0.72564627     1.06100
O789        O  0.13873128  0.32856039  0.79429708    -0.76500
C790        C  0.05828774  0.35519867  0.74709591     1.04400
Fe791      Fe  0.09280378  0.07994446  0.82628167     1.65800
Fe792      Fe  0.11117619  0.14404899  0.85705347     1.73200
Fe793      Fe  0.14685198  0.11961894  0.79197442     1.54400
O794        O  0.15874579  0.07526158  0.79252858    -0.80300
O795        O  0.12319266  0.17878858  0.83142512    -0.78600
O796        O  0.13081524  0.05483161  0.82904606    -0.82800
O797        O  0.09233010  0.07511648  0.78054293    -0.77600
O798        O  0.17950707  0.12719962  0.82518921    -0.79400
O799        O  0.06595877  0.14895854  0.84087281    -0.82100
C800        C  0.09978568  0.08760243  0.75620643     0.98600
C801        C  0.15155710  0.05344283  0.80889623     1.06100
O802        O  0.11706732  0.11481694  0.82518720    -1.11100
O803        O  0.09755618  0.11771066  0.89289663    -0.73600
O804        O  0.08883789  0.07567656  0.87204330    -0.77000
O805        O  0.11600333  0.11038231  0.75630291    -0.77700
C806        C  0.09022204  0.09162004  0.89501467     0.97500
O807        O  0.05444601  0.10499429  0.82224665    -0.75700
O808        O  0.15705375  0.13876301  0.87013816    -0.80900
C809        C  0.13250125  0.18462508  0.80500180     1.00100
C810        C  0.18054522  0.13248586  0.85381837     1.06100
O811        O  0.13949897  0.16462889  0.78620786    -0.76500
C812        C  0.04866536  0.13164149  0.82575545     1.04400
Fe813      Fe  0.89670935  0.40911724  0.79164740     1.65800
Fe814      Fe  0.87961752  0.35505564  0.84130096     1.73200
Fe815      Fe  0.83005738  0.37164808  0.78210524     1.54400
O816        O  0.81947506  0.41555790  0.77922089    -0.80300
O817        O  0.86534965  0.31716957  0.82125236    -0.78600
O818        O  0.86269400  0.43893047  0.79012453    -0.82800
O819        O  0.89136452  0.39956856  0.74580177    -0.77600
O820        O  0.80519307  0.37077363  0.82160661    -0.79400
O821        O  0.92444572  0.34638790  0.82374592    -0.82100
C822        C  0.87299959  0.38557746  0.72894870     0.98600
C823        C  0.83446234  0.43861606  0.78401367     1.06100
O824        O  0.86879574  0.37845442  0.80494534    -1.11100
O825        O  0.89523708  0.38897568  0.86837864    -0.73600
O826        O  0.90563469  0.42359868  0.83552256    -0.77000
O827        O  0.84980011  0.37252490  0.73926307    -0.77700
C828        C  0.90389584  0.41437420  0.86273166     0.97500
O829        O  0.93373854  0.38238118  0.79135130    -0.75700
O830        O  0.83587956  0.36185816  0.86126652    -0.80900
C831        C  0.84878733  0.30890822  0.79916451     1.00100
C832        C  0.80966541  0.36785748  0.84996963     1.06100
O833        O  0.83501716  0.32680546  0.78208178    -0.76500
C834        C  0.94147089  0.35910360  0.80398325     1.04400
Fe835      Fe  0.89378172  0.08805086  0.77610710     1.65800
Fe836      Fe  0.87433890  0.14267337  0.72999148     1.73200
Fe837      Fe  0.82819603  0.12186121  0.78973514     1.54400
O838        O  0.82242104  0.07649114  0.79367157    -0.80300
O839        O  0.86393553  0.17960484  0.75369507    -0.78600
O840        O  0.86147755  0.05769924  0.76777582    -0.82800
O841        O  0.88305279  0.08844560  0.82187035    -0.77600
O842        O  0.80199106  0.11962227  0.75157908    -0.79400
O843        O  0.92059174  0.14810685  0.74499816    -0.82100
C844        C  0.87195742  0.10747938  0.83916347     0.98600
C845        C  0.83546817  0.05534958  0.78021575     1.06100
O846        O  0.86525622  0.11797415  0.76506962    -1.11100
O847        O  0.88501432  0.10862885  0.70089825    -0.73600
O848        O  0.91054850  0.08111329  0.73280223    -0.77000
O849        O  0.85215315  0.12507031  0.83005574    -0.77700
C850        C  0.90138657  0.08688302  0.70615799     0.97500
O851        O  0.92631961  0.11805591  0.78456303    -0.75700
O852        O  0.82906664  0.13923286  0.71335121    -0.80900
C853        C  0.84497559  0.18590895  0.77451493     1.00100
C854        C  0.80455016  0.12816456  0.72425834     1.06100
O855        O  0.82911174  0.16702738  0.78851404    -0.76500
C856        C  0.93545532  0.13884456  0.76832514     1.04400
C857        C  0.82790348  0.26577859  0.76955168     0.25000
C858        C  0.84579095  0.27704534  0.79365554    -0.23100
C859        C  0.86119090  0.25723903  0.81271645     0.19900
C860        C  0.85948102  0.22759478  0.80730787     0.24900
C861        C  0.84234107  0.21667857  0.78292169    -0.23000
C862        C  0.82634232  0.23597053  0.76424237     0.19800
F863        F  0.80962927  0.22592482  0.74040703    -0.13000
F864        F  0.81233096  0.28350914  0.75065169    -0.15400
F865        F  0.87572154  0.20950223  0.82526414    -0.15400
F866        F  0.87866991  0.26638100  0.83640633    -0.13000
C867        C  0.81775812  0.48060183  0.75363185     0.25000
C868        C  0.81978511  0.46701031  0.78212398    -0.23100
C869        C  0.81798996  0.48380045  0.80875890     0.19900
C870        C  0.81491687  0.01188309  0.80718509     0.24900
C871        C  0.82194687  0.02611952  0.77977397    -0.23000
C872        C  0.82459869  0.00981069  0.75283173     0.19800
F873        F  0.83096830  0.02290309  0.72588758    -0.13000
F874        F  0.81929188  0.46493135  0.72753132    -0.15400
F875        F  0.81191384  0.02700765  0.83349680    -0.15400
F876        F  0.82027233  0.47114278  0.83652052    -0.13000
C877        C  0.01857422  0.13350810  0.77772361     0.25000
C878        C  0.02181768  0.14229787  0.80838701    -0.23100
C879        C  0.99822384  0.15824869  0.82176012     0.19900
C880        C  0.97050051  0.16206772  0.80591571     0.24900
C881        C  0.96606408  0.14982803  0.77671387    -0.23000
C882        C  0.99112960  0.13738266  0.76201516     0.19800
F883        F  0.98779583  0.12550503  0.73388096    -0.13000
F884        F  0.04139899  0.11909806  0.76362257    -0.15400
F885        F  0.94694195  0.17538333  0.82015123    -0.15400
F886        F  0.00084678  0.16763326  0.85096696    -0.13000
C887        C  0.02714075  0.34996701  0.79499717     0.25000
C888        C  0.02931068  0.34672109  0.76302666    -0.23100
C889        C  0.00242381  0.34054120  0.74683633     0.19900
C890        C  0.97401148  0.33976573  0.76200468     0.24900
C891        C  0.97131980  0.34714640  0.79308672    -0.23000
C892        C  0.99843052  0.35119429  0.80974082     0.19800
F893        F  0.99708994  0.35877606  0.83961940    -0.13000
F894        F  0.05284378  0.35427951  0.81164670    -0.15400
F895        F  0.94851153  0.33353479  0.74594439    -0.15400
F896        F  0.00334889  0.33682830  0.71613950    -0.13000
C897        C  0.13819698  0.26696860  0.81374631     0.25000
C898        C  0.13749781  0.27662965  0.78336706    -0.23100
C899        C  0.13454583  0.25544842  0.76011590     0.19900
C900        C  0.13350949  0.22591937  0.76689438     0.24900
C901        C  0.13483712  0.21620042  0.79714199    -0.23000
C902        C  0.13693174  0.23735788  0.82053394     0.19800
F903        F  0.13813186  0.22948556  0.85032645    -0.13000
F904        F  0.14015749  0.28610051  0.83706216    -0.15400
F905        F  0.13018668  0.20687257  0.74367554    -0.15400
F906        F  0.13192865  0.26316823  0.73038335    -0.13000
C907        C  0.17015692  0.47354934  0.81014524     0.25000
C908        C  0.17013846  0.46628281  0.77897761    -0.23100
C909        C  0.17446268  0.48830419  0.75740845     0.19900
C910        C  0.17151352  0.01628690  0.77206243     0.24900
C911        C  0.16425565  0.02431540  0.80224687    -0.23000
C912        C  0.16175906  0.00241384  0.82436372     0.19800
F913        F  0.15564913  0.00903266  0.85393890    -0.13000
F914        F  0.16552751  0.45304545  0.83163368    -0.15400
F915        F  0.17482851  0.03651705  0.75004901    -0.15400
F916        F  0.17485307  0.48205240  0.72714111    -0.13000
C917        C  0.26155830  0.15251046  0.86953544     0.25000
C918        C  0.27551214  0.12545361  0.86740159    -0.23100
C919        C  0.25713785  0.10072418  0.86885517     0.19900
C920        C  0.22517627  0.10316780  0.86881969     0.24900
C921        C  0.21123733  0.13032865  0.86755361    -0.23000
C922        C  0.22964099  0.15495366  0.86967188     0.19800
F923        F  0.21687201  0.18137832  0.86786025    -0.13000
F924        F  0.27887152  0.17667293  0.86762485    -0.15400
F925        F  0.20784400  0.07904177  0.86636682    -0.15400
F926        F  0.26996593  0.07432929  0.86664219    -0.13000
C927        C  0.25796577  0.40669848  0.70973940     0.25000
C928        C  0.28117730  0.38643241  0.71427579    -0.23100
C929        C  0.27319023  0.35715915  0.71549167     0.19900
C930        C  0.24244683  0.34854129  0.71535327     0.24900
C931        C  0.21910727  0.36900006  0.71347607    -0.23000
C932        C  0.22715161  0.39799436  0.70900619     0.19800
F933        F  0.20502174  0.41826037  0.70742824    -0.13000
F934        F  0.26487038  0.43510157  0.70920965    -0.15400
F935        F  0.23539754  0.32052226  0.72015080    -0.15400
F936        F  0.29508192  0.33713534  0.72026745    -0.13000
C937        C  0.32175168  0.28534094  0.81301788     0.25000
C938        C  0.32530904  0.29265273  0.78200840    -0.23100
C939        C  0.32163616  0.27067719  0.76011421     0.19900
C940        C  0.31862134  0.24180583  0.76911120     0.24900
C941        C  0.32085628  0.23416704  0.80012961    -0.23000
C942        C  0.32011560  0.25640777  0.82199263     0.19800
F943        F  0.32059443  0.25006300  0.85221731    -0.13000
F944        F  0.32346318  0.30588034  0.83494749    -0.15400
F945        F  0.31798102  0.22116003  0.74722302    -0.15400
F946        F  0.32342324  0.27684846  0.72990477    -0.13000
C947        C  0.34561921  0.03249096  0.76680203     0.25000
C948        C  0.35352936  0.04303735  0.79578868    -0.23100
C949        C  0.36053285  0.02249856  0.81883056     0.19900
C950        C  0.34620897  0.49416371  0.81105771     0.24900
C951        C  0.35314623  0.48367499  0.78177157    -0.23000
C952        C  0.35732276  0.50436625  0.75812623     0.19800
F953        F  0.36450516  0.49610552  0.72928778    -0.13000
F954        F  0.33821944  0.05084086  0.74399223    -0.15400
F955        F  0.34185025  0.47572650  0.83459821    -0.15400
F956        F  0.36823888  0.03076910  0.84754173    -0.13000
C957        C  0.48726443  0.09996962  0.82161721     0.25000
C958        C  0.46638967  0.12080737  0.81146739    -0.23100
C959        C  0.47322634  0.13586991  0.78442074     0.19900
C960        C  0.50103541  0.13223760  0.76941711     0.24900
C961        C  0.52303316  0.11336773  0.78081276    -0.23000
C962        C  0.51566321  0.09660255  0.80661021     0.19800
F963        F  0.53686260  0.07872584  0.81863392    -0.13000
F964        F  0.48127630  0.08455709  0.84718608    -0.15400
F965        F  0.50782785  0.14957331  0.74543116    -0.15400
F966        F  0.45338612  0.15534762  0.77305101    -0.13000
C967        C  0.75807857  0.14977256  0.70215505     0.25000
C968        C  0.77637758  0.12539558  0.70605153    -0.23100
C969        C  0.76253945  0.09808318  0.70445190     0.19900
C970        C  0.73065460  0.09538463  0.70428120     0.24900
C971        C  0.71240303  0.11994772  0.70618713    -0.23000
C972        C  0.72616225  0.14700966  0.70192693     0.19800
F973        F  0.70878089  0.17106438  0.70277731    -0.13000
F974        F  0.77067201  0.17637201  0.70414465    -0.15400
F975        F  0.71788652  0.06902436  0.70796835    -0.15400
F976        F  0.77968282  0.07417182  0.70846561    -0.13000
C977        C  0.49818312  0.41283336  0.74668573     0.25000
C978        C  0.47152351  0.40984237  0.76431226    -0.23100
C979        C  0.47479236  0.40990932  0.79642018     0.19900
C980        C  0.50401720  0.40933520  0.81027120     0.24900
C981        C  0.53063344  0.40840476  0.79227841    -0.23000
C982        C  0.52724172  0.41194738  0.76043763     0.19800
F983        F  0.55234605  0.41270970  0.74229951    -0.13000
F984        F  0.49633353  0.41544557  0.71596690    -0.15400
F985        F  0.50614620  0.40708348  0.84105510    -0.15400
F986        F  0.44959220  0.40845460  0.81440540    -0.13000
C987        C  0.73033596  0.35361842  0.87631986     0.25000
C988        C  0.71794779  0.38142041  0.87353885    -0.23100
C989        C  0.73831325  0.40480345  0.87385811     0.19900
C990        C  0.76998609  0.40033975  0.87110957     0.24900
C991        C  0.78201607  0.37237789  0.86916407    -0.23000
C992        C  0.76208299  0.34915917  0.87419370     0.19800
F993        F  0.77278415  0.32192591  0.87220129    -0.13000
F994        F  0.71145450  0.33044589  0.87579636    -0.15400
F995        F  0.78835989  0.42326603  0.86557164    -0.15400
F996        F  0.72729309  0.43185918  0.87111562    -0.13000
C997        C  0.68296309  0.27026350  0.76553784     0.25000
C998        C  0.67563305  0.28306402  0.79365349    -0.23100
C999        C  0.67279665  0.26540160  0.81955885     0.19900
C1000       C  0.67355120  0.23544552  0.81673763     0.24900
C1001       C  0.67649220  0.22265051  0.78786000    -0.23000
C1002       C  0.68285907  0.24025158  0.76253956     0.19800
F1003       F  0.68581487  0.22844572  0.73434871    -0.13000
F1004       F  0.68635126  0.28663557  0.74023739    -0.15400
F1005       F  0.66691526  0.21907448  0.84149198    -0.15400
F1006       F  0.66603607  0.27713459  0.84711702    -0.13000
C1007       C  0.65345809  0.49483393  0.81924065     0.25000
C1008       C  0.65588704  0.47404414  0.79588745    -0.23100
C1009       C  0.65835180  0.48345813  0.76550624     0.19900
C1010       C  0.64813248  0.01224533  0.76054619     0.24900
C1011       C  0.64844365  0.03239788  0.78460473    -0.23000
C1012       C  0.65235128  0.02230525  0.81457979     0.19800
F1013       F  0.65271436  0.04099327  0.83837321    -0.13000
F1014       F  0.65191559  0.48672254  0.84895276    -0.15400
F1015       F  0.64471749  0.02112689  0.73127146    -0.15400
F1016       F  0.66110433  0.46417772  0.74243561    -0.13000
C1017       C  0.03633456  0.07463653  0.95762782     0.25000
C1018       C  0.03808489  0.04456507  0.95486466    -0.23100
C1019       C  0.06710513  0.03350219  0.94815278     0.19900
C1020       C  0.08722585  0.05005145  0.93055094     0.24900
C1021       C  0.08015506  0.07889333  0.92417839    -0.23000
C1022       C  0.05676872  0.09194313  0.94112872     0.19800
F1023       F  0.05154834  0.12053377  0.93883927    -0.13000
F1024       F  0.01540815  0.08701790  0.97624549    -0.15400
F1025       F  0.11127401  0.03711887  0.91668544    -0.15400
F1026       F  0.07378480  0.00567126  0.95422390    -0.13000
C1027       C  0.04836182  0.42037770  0.83529205     0.25000
C1028       C  0.07936875  0.41446516  0.84081970    -0.23100
C1029       C  0.09346682  0.42631518  0.86681879     0.19900
C1030       C  0.07707470  0.44514872  0.88582724     0.24900
C1031       C  0.04653180  0.45209671  0.87890450    -0.23000
C1032       C  0.03226665  0.43884348  0.85400405     0.19800
F1033       F  0.00317757  0.44561444  0.84619169    -0.13000
F1034       F  0.03423406  0.41055398  0.80977162    -0.15400
F1035       F  0.09108537  0.45691267  0.91049377    -0.15400
F1036       F  0.12352578  0.42159899  0.87236951    -0.13000
C1037       C  0.91131189  0.46410735  0.88271486     0.25000
C1038       C  0.91233459  0.43456790  0.88823616    -0.23100
C1039       C  0.92376374  0.42541915  0.91679216     0.19900
C1040       C  0.93642827  0.44537551  0.93787124     0.24900
C1041       C  0.93868647  0.47493791  0.93057703    -0.23000
C1042       C  0.92541959  0.48352615  0.90233481     0.19800
F1043       F  0.93090485  0.50976485  0.89019534    -0.13000
F1044       F  0.89906045  0.47442009  0.85646729    -0.15400
F1045       F  0.95007638  0.43511015  0.96334453    -0.15400
F1046       F  0.92505121  0.39700863  0.92333583    -0.13000
C1047       C  0.91552641  0.11559103  0.87254530     0.25000
C1048       C  0.88447848  0.10900127  0.87002849    -0.23100
C1049       C  0.86947734  0.09573046  0.89444742     0.19900
C1050       C  0.88649384  0.08548147  0.91917971     0.24900
C1051       C  0.91877240  0.08721032  0.91879325    -0.23000
C1052       C  0.93269827  0.10485636  0.89654274     0.19800
F1053       F  0.96333997  0.10874754  0.89503870    -0.13000
F1054       F  0.93022685  0.12872340  0.84922069    -0.15400
F1055       F  0.87175197  0.07127629  0.94187080    -0.15400
F1056       F  0.83917945  0.08968442  0.89266644    -0.13000
C1057       C  0.56918173  0.33223171  0.92109500     0.25000
C1058       C  0.58205653  0.32315337  0.89315026    -0.23100
C1059       C  0.58365809  0.29371008  0.88736493     0.19900
C1060       C  0.56943570  0.27401646  0.90640953     0.24900
C1061       C  0.55464928  0.28243490  0.93391593    -0.23000
C1062       C  0.55563278  0.31209001  0.94132779     0.19800
F1063       F  0.54020295  0.32213868  0.96595306    -0.13000
F1064       F  0.56729376  0.36064504  0.92760695    -0.15400
F1065       F  0.56536009  0.24753301  0.89424311    -0.15400
F1066       F  0.59676746  0.28378698  0.86130354    -0.13000
C1067       C  0.43073796  0.16109156  0.94066772     0.25000
C1068       C  0.40675076  0.17567030  0.92612797    -0.23100
C1069       C  0.40066788  0.20405656  0.93522737     0.19900
C1070       C  0.42243584  0.21926312  0.95222898     0.24900
C1071       C  0.45134837  0.20696581  0.95692132    -0.23000
C1072       C  0.45233218  0.17680052  0.95743572     0.19800
F1073       F  0.47307016  0.16273918  0.97472018    -0.13000
F1074       F  0.43521205  0.13262418  0.93596861    -0.15400
F1075       F  0.41753546  0.24735935  0.95873819    -0.15400
F1076       F  0.37587529  0.21810176  0.92430887    -0.13000
C1077       C  0.46378451  0.31573397  0.85193017     0.25000
C1078       C  0.44938666  0.30170429  0.87627402    -0.23100
C1079       C  0.41953929  0.30988172  0.88462936     0.19900
C1080       C  0.40408713  0.33117588  0.86802947     0.24900
C1081       C  0.41839947  0.34455622  0.84308120    -0.23000
C1082       C  0.44884225  0.33721254  0.83602687     0.19800
F1083       F  0.46297935  0.34850122  0.81117089    -0.13000
F1084       F  0.49184187  0.30730231  0.84225227    -0.15400
F1085       F  0.37447500  0.33697821  0.87470442    -0.15400
F1086       F  0.40522015  0.29700992  0.90844048    -0.13000
C1087       C  0.62193429  0.15858076  0.89637955     0.25000
C1088       C  0.60732380  0.14622351  0.87110097    -0.23100
C1089       C  0.57586406  0.14108937  0.87226530     0.19900
C1090       C  0.55840086  0.15133285  0.89639744     0.24900
C1091       C  0.57225589  0.16701785  0.92030213    -0.23000
C1092       C  0.60453654  0.16825911  0.92126291     0.19800
F1093       F  0.61900023  0.18108121  0.94506658    -0.13000
F1094       F  0.65245258  0.16379268  0.89569763    -0.15400
F1095       F  0.52767329  0.14877830  0.89383206    -0.15400
F1096       F  0.56134447  0.12923608  0.84800660    -0.13000
C1097       C  0.07242557  0.02478242  0.71229384     0.25000
C1098       C  0.05025374  0.03677184  0.69318897    -0.23100
C1099       C  0.04943149  0.06700810  0.68998608     0.19900
C1100       C  0.06871303  0.08470696  0.70770028     0.24900
C1101       C  0.08921206  0.07237563  0.72845759    -0.23000
C1102       C  0.09196678  0.04225037  0.72902032     0.19800
F1103       F  0.11105076  0.02943924  0.74911692    -0.13000
F1104       F  0.07320311  0.99607891  0.71741677    -0.15400
F1105       F  0.06562036  0.11361879  0.70629457    -0.15400
F1106       F  0.02943812  0.07950988  0.67053619    -0.13000
C1107       C  0.06111980  0.43942917  0.62061348     0.25000
C1108       C  0.03011009  0.43403036  0.62804990    -0.23100
C1109       C  0.02404145  0.41141394  0.64889146     0.19900
C1110       C  0.04714775  0.39436556  0.66023579     0.24900
C1111       C  0.07757145  0.40248326  0.65638681    -0.23000
C1112       C  0.08465821  0.42459037  0.63576847     0.19800
F1113       F  0.11407088  0.43320825  0.63209116    -0.13000
F1114       F  0.06883194  0.46211076  0.60281769    -0.15400
F1115       F  0.03948163  0.37350148  0.68045558    -0.15400
F1116       F  0.99694360  0.40893248  0.66363009    -0.13000
C1117       C  0.90758140  0.03682096  0.68936854     0.25000
C1118       C  0.90935919  0.06591236  0.68180058    -0.23100
C1119       C  0.92217191  0.07360539  0.65341276     0.19900
C1120       C  0.93581524  0.05253198  0.63448009     0.24900
C1121       C  0.93668154  0.02349138  0.64375954    -0.23000
C1122       C  0.92115384  0.01615299  0.67116572     0.19800
F1123       F  0.92323770  0.98947171  0.68339360    -0.13000
F1124       F  0.89506227  0.02838305  0.71630033    -0.15400
F1125       F  0.95084446  0.06111140  0.60902512    -0.15400
F1126       F  0.92401339  0.10163349  0.64533210    -0.13000
C1127       C  0.86315283  0.40393153  0.67645338     0.25000
C1128       C  0.87919882  0.38554017  0.69593605    -0.23100
C1129       C  0.90568113  0.37240621  0.68513965     0.19900
C1130       C  0.91956739  0.38189255  0.65836306     0.24900
C1131       C  0.90698474  0.40518584  0.64202715    -0.23000
C1132       C  0.87653643  0.41289456  0.64896521     0.19800
F1133       F  0.86110291  0.43148696  0.63091480    -0.13000
F1134       F  0.83618926  0.41549057  0.68542470    -0.15400
F1135       F  0.94677152  0.37009502  0.65081039    -0.15400
F1136       F  0.91957238  0.35202789  0.70192194    -0.13000
C1137       C  0.55365047  0.19864541  0.63949780     0.25000
C1138       C  0.55790792  0.22791597  0.64728458    -0.23100
C1139       C  0.57784553  0.23420018  0.67192776     0.19900
C1140       C  0.59312399  0.21280337  0.68735290     0.24900
C1141       C  0.58618291  0.18395473  0.68204800    -0.23000
C1142       C  0.56757421  0.17677352  0.65696064     0.19800
F1143       F  0.56057316  0.14891554  0.65117000    -0.13000
F1144       F  0.53304739  0.19100686  0.61785093    -0.15400
F1145       F  0.61178912  0.22051833  0.71078053    -0.15400
F1146       F  0.57929476  0.26067582  0.68478371    -0.13000
C1147       C  0.47784287  0.34314051  0.65550799     0.25000
C1148       C  0.47195966  0.32033056  0.63485935    -0.23100
C1149       C  0.44105916  0.31558273  0.62633775     0.19900
C1150       C  0.41729788  0.33080521  0.64068717     0.24900
C1151       C  0.42401731  0.35287292  0.66140546    -0.23000
C1152       C  0.45447599  0.36037670  0.66635235     0.19800
F1153       F  0.46161491  0.38125369  0.68663885    -0.13000
F1154       F  0.50496618  0.34602178  0.67006156    -0.15400
F1155       F  0.38790439  0.32250056  0.63619967    -0.15400
F1156       F  0.43334241  0.29301825  0.60833186    -0.13000
C1157       C  0.59256952  0.36754295  0.65859323     0.25000
C1158       C  0.60040282  0.34002248  0.64730763    -0.23100
C1159       C  0.62766841  0.32783714  0.65876181     0.19900
C1160       C  0.63967265  0.33736933  0.68651618     0.24900
C1161       C  0.62643795  0.36068262  0.70159828    -0.20600
C1162       C  0.60516183  0.37747195  0.68604064     0.19800
F1163       F  0.59479099  0.40217950  0.69861479    -0.13000
F1164       F  0.57142170  0.38403011  0.64455891    -0.15400
F1165       F  0.66258423  0.32246095  0.69981794    -0.15400
F1166       F  0.64136742  0.30534693  0.64473713    -0.13000
C1167       C  0.41964097  0.23482232  0.71481379     0.25000
C1168       C  0.44227154  0.22180900  0.69674687    -0.23100
C1169       C  0.44195942  0.19148573  0.69410920     0.19900
C1170       C  0.42170479  0.17473402  0.71173508     0.24900
C1171       C  0.40139827  0.18799338  0.73203010    -0.23000
C1172       C  0.39975791  0.21818733  0.73223312     0.19800
F1173       F  0.38120966  0.23186172  0.75227972    -0.13000
F1174       F  0.41847971  0.26374462  0.71822357    -0.15400
F1175       F  0.42397268  0.14572427  0.71111142    -0.15400
F1176       F  0.46171914  0.17791180  0.67518723    -0.13000
C1177       C  0.49837153  0.78942477  0.12966057     0.31400
C1178       C  0.54054878  0.74666802  0.13469328     0.31400
C1179       C  0.49598936  0.77083328  0.15834978    -0.04800
C1180       C  0.49724076  0.76673473  0.10401748    -0.05600
C1181       C  0.53219178  0.79865505  0.12779924    -0.05400
C1182       C  0.51732596  0.74892402  0.16078621    -0.04800
C1183       C  0.51970971  0.74446811  0.10603219    -0.05600
C1184       C  0.55330985  0.77709040  0.13089807    -0.05400
C1185       C  0.50300006  0.72642558  0.17587779    -0.30800
N1186       N  0.47391317  0.73365856  0.18259466     0.15700
C1187       C  0.46956795  0.76049266  0.17182851    -0.30800
H1188       H  0.44743278  0.77048363  0.17025834     0.17600
C1189       C  0.52763984  0.73829706  0.07599666    -0.29800
N1190       N  0.51035610  0.75439518  0.05710892     0.14400
C1191       C  0.49231618  0.77178144  0.07358411    -0.29800
C1192       C  0.58178897  0.78952019  0.12975574    -0.30100
N1193       N  0.57895192  0.81853510  0.12729678     0.14900
H1194       H  0.60275094  0.77805412  0.13367235     0.17500
C1195       C  0.54859311  0.82352191  0.12295043    -0.30100
H1196       H  0.53856436  0.84406193  0.11805215     0.17500
H1197       H  0.47884127  0.78897172  0.06402902     0.17500
H1198       H  0.51257477  0.70531048  0.17912182     0.17600
H1199       H  0.54633909  0.72491800  0.06849887     0.17500
C1200       C  0.96821025  0.49954650  0.13460479     0.31400
C1201       C  0.00723677  0.95645525  0.12740789     0.31400
C1202       C  0.95235102  0.96796104  0.13147792    -0.04800
C1203       C  0.98764796  0.50168674  0.10494086    -0.05600
C1204       C  0.99252093  0.49725202  0.15952762    -0.05400
C1205       C  0.97350660  0.94667643  0.12746835    -0.04800
C1206       C  0.00648097  0.97872173  0.10121717    -0.05600
C1207       C  0.01402863  0.47567544  0.15571333    -0.05400
C1208       C  0.95706764  0.92160721  0.12329459    -0.30800
N1209       N  0.92681864  0.92658329  0.12855358     0.15700
C1210       C  0.92397204  0.95552689  0.13120540    -0.30800
H1211       H  0.90317628  0.96698519  0.13606642     0.17600
C1212       C  0.00896495  0.97302794  0.07047645    -0.29800
N1213       N  0.99380442  0.49187495  0.05546778     0.14400
C1214       C  0.97811004  0.50816489  0.07555886    -0.29800
C1215       C  0.04105987  0.48639639  0.16773174    -0.30100
N1216       N  0.03668155  0.51298161  0.17927459     0.14900
H1217       H  0.06330120  0.47682968  0.16472743     0.17500
C1218       C  0.00709306  0.51968580  0.17433472    -0.30100
H1219       H  0.99708904  0.54041286  0.17876700     0.17500
H1220       H  0.95935286  0.52204713  0.06937079     0.17500
H1221       H  0.96701549  0.90101193  0.11829147     0.17600
H1222       H  0.02223226  0.95601095  0.06021661     0.17500
C1223       C  0.48553369  0.72563521  0.45178491     0.31400
C1224       C  0.53644174  0.75982845  0.44443735     0.31400
C1225       C  0.48543312  0.74538040  0.42345712    -0.04800
C1226       C  0.49063730  0.74429983  0.97938214    -0.05600
C1227       C  0.51667572  0.70990664  0.44858453    -0.05400
C1228       C  0.51107574  0.76269041  0.42065190    -0.04800
C1229       C  0.51720899  0.76185381  0.97585786    -0.05600
C1230       C  0.54234195  0.72739723  0.44607047    -0.05400
C1231       C  0.50325776  0.78593702  0.40310368    -0.30800
N1232       N  0.47415708  0.78315690  0.39381520     0.15700
C1233       C  0.46286384  0.75854091  0.40590526    -0.30800
H1234       H  0.43957933  0.75148986  0.40273278     0.17600
C1235       C  0.52859184  0.76556678  0.00521458    -0.29800
N1236       N  0.50933098  0.75262937  0.02521115     0.14400
C1237       C  0.48664320  0.73946634  0.00993595    -0.29800
C1238       C  0.56700953  0.71008341  0.43992040    -0.30100
N1239       N  0.55706209  0.68283576  0.43530536     0.14900
H1240       H  0.58986758  0.71760582  0.43487790     0.17500
C1241       C  0.52643857  0.68263510  0.44061006    -0.30100
H1242       H  0.51189629  0.66448113  0.43609196     0.17500
H1243       H  0.46983372  0.72543790  0.02027283     0.17500
H1244       H  0.51705890  0.80490156  0.39938870     0.17600
H1245       H  0.55011598  0.77544177  0.01141246     0.17500
C1246       C  0.96548556  0.99167712  0.44225388     0.31400
C1247       C  0.01438793  0.52645327  0.44850950     0.31400
C1248       C  0.95768297  0.52420922  0.44357239    -0.04800
C1249       C  0.97731250  0.98573679  0.97365400    -0.05600
C1250       C  0.99132284  0.98807862  0.41904289    -0.05400
C1251       C  0.98304331  0.54204233  0.44656361    -0.04800
C1252       C  0.00785148  0.50847126  0.97782802    -0.05600
C1253       C  0.01661970  0.00584234  0.42172125    -0.05400
C1254       C  0.97241659  0.56944650  0.44048423    -0.30800
N1255       N  0.94165466  0.56868730  0.43552547     0.15700
C1256       C  0.93259573  0.54102667  0.43881133    -0.30800
H1257       H  0.91003979  0.53290360  0.43353580     0.17600
C1258       C  0.01415571  0.51063989  0.00829792    -0.29800
N1259       N  0.99356691  0.49479440  0.02363796     0.14400
C1260       C  0.96824382  0.97984111  0.00353207    -0.29800
C1261       C  0.03994772  0.99219113  0.40550052    -0.30100
N1262       N  0.02953308  0.96677384  0.39445256     0.14900
H1263       H  0.06316624  0.99952944  0.40257968     0.17500
C1264       C  0.00011732  0.96409536  0.40296564    -0.30100
H1265       H  0.98672949  0.94479490  0.39985163     0.17500
H1266       H  0.94742767  0.96911991  0.01052705     0.17500
H1267       H  0.98649227  0.58805096  0.43688576     0.17600
H1268       H  0.03081336  0.52470712  0.01884210     0.17500
Fe1269     Fe  0.60206065  0.84236180  0.29414119     1.65800
Fe1270     Fe  0.61996006  0.89724471  0.34183497     1.73200
Fe1271     Fe  0.66797997  0.87834612  0.28263029     1.54400
O1272       O  0.67592666  0.83336333  0.27922806    -0.80300
O1273       O  0.63075460  0.93440448  0.31944070    -0.78600
O1274       O  0.63507481  0.81229886  0.30019051    -0.82800
O1275       O  0.61186284  0.84536470  0.24778909    -0.77600
O1276       O  0.69367183  0.87800955  0.32117814    -0.79400
O1277       O  0.57379426  0.90319466  0.32543820    -0.82100
C1278       C  0.62737710  0.86181771  0.23065681     0.98600
C1279       C  0.66206050  0.81125191  0.28987752     1.06100
O1280       O  0.63009963  0.87296299  0.30628134    -1.11100
O1281       O  0.60873799  0.86324687  0.37025099    -0.73600
O1282       O  0.58751690  0.83271301  0.33794926    -0.77000
O1283       O  0.64664241  0.87946626  0.24099618    -0.77700
C1284       C  0.59493130  0.83995283  0.36486471     0.97500
O1285       O  0.56790662  0.87128910  0.28755714    -0.75700
O1286       O  0.66511403  0.89382181  0.36007889    -0.80900
C1287       C  0.64879148  0.94161640  0.29819935     1.00100
C1288       C  0.69048931  0.88483507  0.34892557     1.06100
O1289       O  0.66454174  0.92334925  0.28327040    -0.76500
C1290       C  0.55898748  0.89316812  0.30225865     1.04400
Fe1291     Fe  0.60394553  0.66079360  0.27525256     1.65800
Fe1292     Fe  0.62193886  0.60406136  0.23074994     1.73200
Fe1293     Fe  0.66794726  0.62558969  0.29033379     1.54400
O1294       O  0.67427809  0.67069855  0.29546014    -0.80300
O1295       O  0.63129474  0.56755837  0.25527945    -0.78600
O1296       O  0.63754040  0.69041099  0.26751026    -0.82800
O1297       O  0.61333905  0.66014182  0.32133965    -0.77600
O1298       O  0.69443144  0.62756026  0.25183815    -0.79400
O1299       O  0.57544509  0.60021511  0.24509037    -0.82100
C1300       C  0.62280773  0.64051815  0.33881664     0.98600
C1301       C  0.66241344  0.69234604  0.28204566     1.06100
O1302       O  0.63137459  0.62968287  0.26519059    -1.11100
O1303       O  0.61244887  0.63725834  0.20063622    -0.73600
O1304       O  0.58898602  0.66752890  0.23158662    -0.77000
O1305       O  0.64273598  0.62259985  0.33032016    -0.77700
C1306       C  0.59753286  0.66002487  0.20522171     0.97500
O1307       O  0.56981957  0.63223655  0.28299798    -0.75700
O1308       O  0.66731224  0.60605553  0.21463284    -0.80900
C1309       C  0.65092680  0.56159177  0.27550434     1.00100
C1310       C  0.69179520  0.61766541  0.22489699     1.06100
O1311       O  0.66700131  0.58068834  0.28883330    -0.76500
C1312       C  0.56023985  0.61121795  0.26732182     1.04400
Fe1313     Fe  0.40469110  0.84629126  0.24246510     1.65800
Fe1314     Fe  0.38037394  0.90912153  0.21828213     1.73200
Fe1315     Fe  0.35344641  0.88327185  0.28436858     1.54400
O1316       O  0.34005553  0.84014015  0.28418074    -0.80300
O1317       O  0.35858919  0.94088342  0.24285853    -0.78600
O1318       O  0.37029005  0.81689904  0.25133537    -0.82800
O1319       O  0.41763335  0.84477948  0.28656231    -0.77600
O1320       O  0.31772995  0.89220991  0.25394458    -0.79400
O1321       O  0.42310260  0.91993456  0.23719937    -0.82100
C1322       C  0.41019335  0.85509969  0.31215529     0.98600
C1323       C  0.34867183  0.81724324  0.27076516     1.06100
O1324       O  0.37921942  0.87911777  0.24894691    -1.11100
O1325       O  0.40389591  0.88625086  0.18437743    -0.73600
O1326       O  0.39297196  0.84257044  0.19718250    -0.77000
O1327       O  0.38780350  0.87233122  0.31565548    -0.77700
C1328       C  0.40493623  0.85971440  0.17870439     0.97500
O1329       O  0.44169897  0.87493952  0.23577297    -0.75700
O1330       O  0.33669245  0.89456822  0.20564494    -0.80900
C1331       C  0.36056337  0.94698332  0.27074982     1.00100
C1332       C  0.31450496  0.89085559  0.22477688     1.06100
O1333       O  0.36449958  0.92708254  0.29018277    -0.76500
C1334       C  0.44445771  0.90169854  0.24262710     1.04400
Fe1335     Fe  0.40279610  0.67433998  0.32704321     1.65800
Fe1336     Fe  0.38434194  0.60962686  0.35605516     1.73200
Fe1337     Fe  0.34858256  0.63531497  0.29167801     1.54400
O1338       O  0.33773471  0.67990187  0.29227808    -0.80300
O1339       O  0.37331137  0.57590792  0.32923775    -0.78600
O1340       O  0.36500355  0.70012209  0.32936755    -0.82800
O1341       O  0.40402661  0.67915329  0.28119513    -0.77600
O1342       O  0.31581983  0.62803129  0.32488729    -0.79400
O1343       O  0.42956992  0.60493547  0.33987899    -0.82100
C1344       C  0.39678880  0.66664370  0.25670512     0.98600
C1345       C  0.34503577  0.70181332  0.30849054     1.06100
O1346       O  0.37836384  0.63953540  0.32504894    -1.11100
O1347       O  0.39744515  0.63505394  0.39273483    -0.73600
O1348       O  0.40571542  0.67773343  0.37324188    -0.77000
O1349       O  0.38003693  0.64418803  0.25645874    -0.77700
C1350       C  0.40431283  0.66116318  0.39574720     0.97500
O1351       O  0.44128813  0.64927604  0.32299432    -0.75700
O1352       O  0.33823997  0.61411644  0.36903745    -0.80900
C1353       C  0.36331407  0.57013072  0.30314651     1.00100
C1354       C  0.31477007  0.62133093  0.35317534     1.06100
O1355       O  0.35454233  0.59006097  0.28515672    -0.76500
C1356       C  0.44687046  0.62248240  0.32518922     1.04400
Fe1357     Fe  0.10223567  0.90421456  0.24601818     1.65800
Fe1358     Fe  0.12372676  0.84049264  0.22118016     1.73200
Fe1359     Fe  0.15252644  0.86540745  0.28700870     1.54400
O1360       O  0.16584079  0.90889016  0.28781733    -0.80300
O1361       O  0.14441757  0.80792646  0.24448811    -0.78600
O1362       O  0.13839524  0.93198241  0.25270318    -0.82800
O1363       O  0.09139449  0.90672876  0.29083826    -0.77600
O1364       O  0.18776849  0.85697662  0.25569193    -0.79400
O1365       O  0.08069101  0.83129554  0.24070467    -0.82100
C1366       C  0.09746690  0.89478491  0.31595792     0.98600
C1367       C  0.15878688  0.93169035  0.27331268     1.06100
O1368       O  0.12649031  0.87039615  0.25185466    -1.11100
O1369       O  0.10108064  0.86365035  0.18761232    -0.73600
O1370       O  0.11145075  0.90770073  0.19990816    -0.77000
O1371       O  0.11826421  0.87578584  0.31879216    -0.77700
C1372       C  0.10010620  0.89002933  0.18151782     0.97500
O1373       O  0.06376781  0.87700384  0.24150571    -0.75700
O1374       O  0.16778816  0.85338975  0.20782904    -0.80900
C1375       C  0.14409873  0.80140702  0.27221290     1.00100
C1376       C  0.19031776  0.85769104  0.22639991     1.06100
O1377       O  0.14189701  0.82112466  0.29228931    -0.76500
C1378       C  0.06004251  0.85007547  0.24702568     1.04400
Fe1379     Fe  0.10164101  0.57454237  0.32629047     1.65800
Fe1380     Fe  0.11943981  0.63955008  0.35454544     1.73200
Fe1381     Fe  0.15677151  0.61288123  0.29133204     1.54400
O1382       O  0.16786728  0.56862026  0.29296135    -0.80300
O1383       O  0.13151564  0.67247353  0.32705815    -0.78600
O1384       O  0.13950224  0.54936703  0.32969009    -0.82800
O1385       O  0.10103330  0.56892303  0.28027067    -0.77600
O1386       O  0.18878737  0.62073999  0.32492813    -0.79400
O1387       O  0.07424725  0.64400805  0.33774994    -0.82100
C1388       C  0.10917535  0.58124838  0.25594031     0.98600
C1389       C  0.16020349  0.54724940  0.30962407     1.06100
O1390       O  0.12600564  0.60929648  0.32404051    -1.11100
O1391       O  0.10548191  0.61482942  0.39149083    -0.73600
O1392       O  0.09854113  0.57175814  0.37245955    -0.77000
O1393       O  0.12617994  0.60348945  0.25592397    -0.77700
C1394       C  0.09919089  0.58862442  0.39478994     0.97500
O1395       O  0.06284828  0.59918803  0.32198867    -0.75700
O1396       O  0.16531525  0.63492841  0.36849813    -0.80900
C1397       C  0.14247484  0.67796180  0.30125900     1.00100
C1398       C  0.18916271  0.62755889  0.35319111     1.06100
O1399       O  0.15104633  0.65772612  0.28357874    -0.76500
C1400       C  0.05680204  0.62592592  0.32388058     1.04400
Fe1401     Fe  0.89893630  0.90772099  0.29386742     1.65800
Fe1402     Fe  0.88150837  0.85319120  0.34225510     1.73200
Fe1403     Fe  0.83324180  0.87063221  0.28276550     1.54400
O1404       O  0.82486745  0.91516205  0.27770043    -0.80300
O1405       O  0.87012338  0.81578341  0.32057949    -0.78600
O1406       O  0.86531637  0.93752476  0.29766298    -0.82800
O1407       O  0.89047824  0.90202315  0.24748432    -0.77600
O1408       O  0.80772852  0.87268767  0.32128147    -0.79400
O1409       O  0.92754059  0.84643846  0.32580753    -0.82100
C1410       C  0.87483823  0.88519623  0.23075093     0.98600
C1411       C  0.83825662  0.93773005  0.28765454     1.06100
O1412       O  0.87126994  0.87688771  0.30632997    -1.11100
O1413       O  0.89404826  0.88684180  0.37034643    -0.73600
O1414       O  0.91136806  0.91917826  0.33772464    -0.77000
O1415       O  0.85490081  0.86832850  0.24134477    -0.77700
C1416       C  0.90608367  0.91088285  0.36477824     0.97500
O1417       O  0.93439941  0.87983354  0.28971042    -0.75700
O1418       O  0.83644321  0.85828923  0.36062514    -0.80900
C1419       C  0.85207074  0.80773938  0.29972568     1.00100
C1420       C  0.81114110  0.86729723  0.34930543     1.06100
O1421       O  0.83586818  0.82549068  0.28472468    -0.76500
C1422       C  0.94315608  0.85760372  0.30379947     1.04400
Fe1423     Fe  0.89836377  0.58630162  0.27389994     1.65800
Fe1424     Fe  0.88122562  0.64226863  0.22854444     1.73200
Fe1425     Fe  0.83386742  0.62183379  0.28747427     1.54400
O1426       O  0.82719859  0.57690670  0.29236736    -0.80300
O1427       O  0.87210905  0.67871044  0.25355606    -0.78600
O1428       O  0.86487773  0.55675317  0.26580722    -0.82800
O1429       O  0.88817146  0.58744855  0.31982401    -0.77600
O1430       O  0.80829086  0.61950370  0.24894965    -0.79400
O1431       O  0.92758972  0.64622029  0.24352082    -0.82100
C1432       C  0.87751214  0.60683729  0.33699795     0.98600
C1433       C  0.83927901  0.55522906  0.27915453     1.06100
O1434       O  0.87104640  0.61719621  0.26304852    -1.11100
O1435       O  0.89137484  0.60877199  0.19855714    -0.73600
O1436       O  0.91407429  0.57900922  0.23045844    -0.77000
O1437       O  0.85799258  0.62477232  0.32781732    -0.77700
C1438       C  0.90639787  0.58615101  0.20373476     0.97500
O1439       O  0.93238239  0.61497933  0.28211022    -0.75700
O1440       O  0.83587284  0.63998798  0.21154963    -0.80900
C1441       C  0.85219268  0.68538495  0.27332975     1.00100
C1442       C  0.81129040  0.62841978  0.22178628     1.06100
O1443       O  0.83469640  0.66689117  0.28577879    -0.76500
C1444       C  0.94236544  0.63567055  0.26624422     1.04400
C1445       C  0.87719901  0.75943991  0.29826250     0.25000
C1446       C  0.85094838  0.77626221  0.29305113    -0.23100
C1447       C  0.82415694  0.76234672  0.28282930     0.19900
C1448       C  0.82386142  0.73244097  0.27770719     0.24900
C1449       C  0.85041709  0.71606102  0.28232809    -0.23000
C1450       C  0.87688080  0.72986291  0.29293549     0.19800
F1451       F  0.90267750  0.71454856  0.29814914    -0.13000
F1452       F  0.90371477  0.77172982  0.30778729    -0.15400
F1453       F  0.79798954  0.71965444  0.26727671    -0.15400
F1454       F  0.79820888  0.77755408  0.27817922    -0.13000
C1455       C  0.81894050  0.98006740  0.25901554     0.25000
C1456       C  0.82331232  0.96613504  0.28701994    -0.23100
C1457       C  0.82218895  0.98243983  0.31409631     0.19900
C1458       C  0.82316923  0.51266951  0.30939090     0.24900
C1459       C  0.82526308  0.52636110  0.28095261    -0.23000
C1460       C  0.82263901  0.50972045  0.25422035     0.19800
F1461       F  0.82444129  0.52244086  0.22642879    -0.13000
F1462       F  0.82077502  0.96508249  0.23250540    -0.15400
F1463       F  0.82576019  0.52813261  0.33554936    -0.15400
F1464       F  0.82709239  0.96959050  0.34142186    -0.13000
C1465       C  0.02421761  0.62279129  0.27733068     0.25000
C1466       C  0.02946577  0.63551365  0.30614195    -0.23100
C1467       C  0.00789985  0.65535582  0.31708167     0.19900
C1468       C  0.98012510  0.65944544  0.30121195     0.24900
C1469       C  0.97399407  0.64439956  0.27385596    -0.23000
C1470       C  0.99720173  0.62757204  0.26124223     0.19800
F1471       F  0.99204649  0.61260433  0.23510220    -0.13000
F1472       F  0.04458619  0.60403855  0.26542084    -0.15400
F1473       F  0.95817275  0.67620112  0.31380118    -0.15400
F1474       F  0.01240372  0.66875035  0.34422202    -0.13000
C1475       C  0.02806134  0.84045712  0.29424493     0.25000
C1476       C  0.03052824  0.84151128  0.26201754    -0.23100
C1477       C  0.00343010  0.84103977  0.24507548     0.19900
C1478       C  0.97494148  0.84233589  0.25966826     0.24900
C1479       C  0.97230125  0.84496600  0.29158974    -0.23000
C1480       C  0.99921188  0.84255739  0.30894864     0.19800
F1481       F  0.99797530  0.84515297  0.33976919    -0.13000
F1482       F  0.05375484  0.84028347  0.31153513    -0.15400
F1483       F  0.94954786  0.84361235  0.24229548    -0.15400
F1484       F  0.00440480  0.84120257  0.21418293    -0.13000
C1485       C  0.13900548  0.76000973  0.30939365     0.25000
C1486       C  0.14585774  0.76990514  0.27999608    -0.23100
C1487       C  0.15281777  0.74900172  0.25731026     0.19900
C1488       C  0.15232045  0.71933626  0.26387383     0.24900
C1489       C  0.14472188  0.70947489  0.29324256    -0.23000
C1490       C  0.13852170  0.73055294  0.31595307     0.19800
F1491       F  0.13168499  0.72290001  0.34505200    -0.13000
F1492       F  0.13185459  0.77881353  0.33194588    -0.15400
F1493       F  0.15881019  0.70037810  0.24124797    -0.15400
F1494       F  0.15995994  0.75711397  0.22841508    -0.13000
C1495       C  0.17043336  0.96760017  0.31399490     0.25000
C1496       C  0.17172242  0.95986534  0.28298430    -0.23100
C1497       C  0.17817353  0.98141263  0.26141190     0.19900
C1498       C  0.18135457  0.51019948  0.27339319     0.24900
C1499       C  0.17205905  0.51784117  0.30315931    -0.23000
C1500       C  0.16641375  0.49559140  0.32426116     0.19800
F1501       F  0.15870597  0.50164581  0.35360393    -0.13000
F1502       F  0.16490294  0.94739699  0.33559432    -0.15400
F1503       F  0.18870308  0.53072644  0.25269299    -0.15400
F1504       F  0.18069093  0.97459159  0.23139127    -0.13000
C1505       C  0.26946278  0.64966349  0.36834185     0.25000
C1506       C  0.28406043  0.62282615  0.36710293    -0.23100
C1507       C  0.26628325  0.59782110  0.36965591     0.19900
C1508       C  0.23426472  0.59960526  0.36984515     0.24900
C1509       C  0.21964601  0.62640510  0.36758040    -0.23000
C1510       C  0.23748590  0.65144554  0.36869933     0.19800
F1511       F  0.22406460  0.67750851  0.36590328    -0.13000
F1512       F  0.28614384  0.67412426  0.36539394    -0.15400
F1513       F  0.21752860  0.57504763  0.36844819    -0.15400
F1514       F  0.27970723  0.57166186  0.36789085    -0.13000
C1515       C  0.25983413  0.90412338  0.21882378     0.25000
C1516       C  0.28313642  0.88395950  0.21422732    -0.23100
C1517       C  0.27489892  0.85515023  0.20860562     0.19900
C1518       C  0.24398581  0.84650507  0.20920229     0.24900
C1519       C  0.22084021  0.86663834  0.21504679    -0.23000
C1520       C  0.22909292  0.89562080  0.21878887     0.19800
F1521       F  0.20740195  0.91530261  0.22571626    -0.13000
F1522       F  0.26697981  0.93156848  0.22649962    -0.15400
F1523       F  0.23695793  0.81819001  0.20701877    -0.15400
F1524       F  0.29694848  0.83487717  0.20606444    -0.13000
C1525       C  0.33640610  0.78248984  0.31215235     0.25000
C1526       C  0.33599651  0.78917177  0.28087111    -0.23100
C1527       C  0.33007432  0.76699255  0.25988748     0.19900
C1528       C  0.32771203  0.73834437  0.26976056     0.24900
C1529       C  0.33364258  0.73116738  0.30048216    -0.23000
C1530       C  0.33600128  0.75380550  0.32182570     0.19800
F1531       F  0.34050528  0.74818455  0.35187337    -0.13000
F1532       F  0.34098137  0.80349658  0.33318424    -0.15400
F1533       F  0.32375544  0.71744355  0.24851581    -0.15400
F1534       F  0.32877803  0.77281464  0.22957465    -0.13000
C1535       C  0.33963413  0.52635698  0.27669147     0.25000
C1536       C  0.36229448  0.53853357  0.29546561    -0.23100
C1537       C  0.38255092  0.51946985  0.31055368     0.19900
C1538       C  0.37313493  0.98772757  0.30664417     0.24900
C1539       C  0.35901828  0.97808669  0.27980705    -0.23000
C1540       C  0.34551690  0.99890603  0.26048445     0.19800
F1541       F  0.33093961  0.99071412  0.23454242    -0.13000
F1542       F  0.31920839  0.54343554  0.26227903    -0.15400
F1543       F  0.38686375  0.96882806  0.32570048    -0.15400
F1544       F  0.40558452  0.52985312  0.32818743    -0.13000
C1545       C  0.49485643  0.59218955  0.31815863     0.25000
C1546       C  0.47352789  0.61203457  0.30705125    -0.23100
C1547       C  0.47847001  0.62385661  0.27779616     0.19900
C1548       C  0.50539800  0.61864724  0.26165349     0.24900
C1549       C  0.52869921  0.60232841  0.27474615    -0.23000
C1550       C  0.52263702  0.58789160  0.30241797     0.19800
F1551       F  0.54486427  0.57202007  0.31568901    -0.13000
F1552       F  0.49014491  0.57909221  0.34538051    -0.15400
F1553       F  0.51045768  0.63290317  0.23508204    -0.15400
F1554       F  0.45794997  0.64213895  0.26550349    -0.13000
C1555       C  0.76479873  0.64936532  0.19921102     0.25000
C1556       C  0.78351587  0.62526796  0.20300656    -0.23100
C1557       C  0.76993933  0.59780380  0.20208205     0.19900
C1558       C  0.73813413  0.59479098  0.20391173     0.24900
C1559       C  0.71969587  0.61924014  0.20610524    -0.23000
C1560       C  0.73294836  0.64636061  0.20095581     0.19800
F1561       F  0.71537893  0.67026366  0.20234350    -0.13000
F1562       F  0.77723861  0.67607792  0.19933921    -0.15400
F1563       F  0.72596792  0.56836645  0.20891143    -0.15400
F1564       F  0.78760118  0.57410184  0.20517558    -0.13000
C1565       C  0.50083672  0.91310156  0.24275074     0.25000
C1566       C  0.47321773  0.91050540  0.25876044    -0.23100
C1567       C  0.47454429  0.90959461  0.29100221     0.19900
C1568       C  0.50282961  0.90707381  0.30643703     0.24900
C1569       C  0.53039020  0.90659318  0.28992130    -0.23000
C1570       C  0.52892749  0.91184755  0.25825703     0.19800
F1571       F  0.55512144  0.91361278  0.24196530    -0.13000
F1572       F  0.50073834  0.91508266  0.21187229    -0.15400
F1573       F  0.50300032  0.90229339  0.33696814    -0.15400
F1574       F  0.44828753  0.90858753  0.30741649    -0.13000
C1575       C  0.73065001  0.85335725  0.36990217     0.25000
C1576       C  0.71876196  0.88132502  0.36734662    -0.23100
C1577       C  0.73925700  0.90453225  0.36964687     0.19900
C1578       C  0.77103824  0.89975862  0.36959166     0.24900
C1579       C  0.78291939  0.87167671  0.36763412    -0.23000
C1580       C  0.76236698  0.84859214  0.37011733     0.19800
F1581       F  0.77279561  0.82132763  0.36736162    -0.13000
F1582       F  0.71163235  0.83043996  0.36703447    -0.15400
F1583       F  0.79009970  0.92262446  0.36657128    -0.15400
F1584       F  0.72874921  0.93178926  0.36707944    -0.13000
C1585       C  0.68072077  0.76860127  0.26095775     0.25000
C1586       C  0.67586538  0.78224064  0.28914442    -0.23100
C1587       C  0.67468371  0.76527662  0.31572189     0.19900
C1588       C  0.67478781  0.73521200  0.31377566     0.24900
C1589       C  0.67551256  0.72160364  0.28516401    -0.23000
C1590       C  0.68014593  0.73851171  0.25892818     0.19800
F1591       F  0.68106497  0.72594255  0.23097641    -0.13000
F1592       F  0.68190630  0.78427651  0.23493938    -0.15400
F1593       F  0.66993781  0.71957941  0.33945461    -0.15400
F1594       F  0.66995068  0.77783643  0.34329946    -0.13000
C1595       C  0.64730388  0.99341084  0.31440869     0.25000
C1596       C  0.65092181  0.97277319  0.29100537    -0.23100
C1597       C  0.65430525  0.98234369  0.26077554     0.19900
C1598       C  0.65897261  0.51004726  0.26107194     0.24900
C1599       C  0.65475568  0.53101572  0.28384806    -0.23000
C1600       C  0.65197462  0.52227093  0.31434895     0.19800
F1601       F  0.64771988  0.54201972  0.33674403    -0.13000
F1602       F  0.64345302  0.98514088  0.34385895    -0.15400
F1603       F  0.66166233  0.51786217  0.23135512    -0.15400
F1604       F  0.65725473  0.96322818  0.23756483    -0.13000
C1605       C  0.04389919  0.57440943  0.45616027     0.25000
C1606       C  0.04381008  0.54435468  0.45252911    -0.23100
C1607       C  0.07228165  0.53168546  0.44641930     0.19900
C1608       C  0.09439131  0.54760255  0.43066700     0.24900
C1609       C  0.08919792  0.57681157  0.42450405    -0.23000
C1610       C  0.06646843  0.59085405  0.44147191     0.19800
F1611       F  0.06432009  0.61988206  0.44124658    -0.13000
F1612       F  0.02313954  0.58754675  0.47433271    -0.15400
F1613       F  0.11845780  0.53380458  0.41781511    -0.15400
F1614       F  0.07653531  0.50314010  0.45073083    -0.13000
C1615       C  0.04793716  0.91084017  0.33622793     0.25000
C1616       C  0.07904610  0.90541191  0.34179774    -0.23100
C1617       C  0.09308781  0.91850755  0.36709683     0.19900
C1618       C  0.07676655  0.93826019  0.38510313     0.24900
C1619       C  0.04624690  0.94512603  0.37790128    -0.23000
C1620       C  0.03180239  0.93031032  0.35398286     0.19800
F1621       F  0.00260863  0.93647220  0.34597660    -0.13000
F1622       F  0.03395508  0.89981571  0.31119535    -0.15400
F1623       F  0.09093078  0.95103906  0.40908098    -0.15400
F1624       F  0.12321912  0.91426141  0.37264154    -0.13000
C1625       C  0.91048845  0.96027554  0.38452167     0.25000
C1626       C  0.91351608  0.93098683  0.39009262    -0.23100
C1627       C  0.92627581  0.92219423  0.41806518     0.19900
C1628       C  0.93856531  0.94264461  0.43860263     0.24900
C1629       C  0.93935168  0.97216907  0.43090328    -0.23000
C1630       C  0.92465932  0.98023236  0.40321727     0.19800
F1631       F  0.92902385  0.00629735  0.39025862    -0.13000
F1632       F  0.89677850  0.96973437  0.35862034    -0.15400
F1633       F  0.95395768  0.93301291  0.46336714    -0.15400
F1634       F  0.92974291  0.89385268  0.42410639    -0.13000
C1635       C  0.92110793  0.61550313  0.37062595     0.25000
C1636       C  0.89016119  0.60839264  0.36786466    -0.23100
C1637       C  0.87495194  0.59576291  0.39256310     0.19900
C1638       C  0.89160381  0.58710264  0.41822379     0.24900
C1639       C  0.92387146  0.58928124  0.41839688    -0.23000
C1640       C  0.93790855  0.60626782  0.39566060     0.19800
F1641       F  0.96843148  0.61107883  0.39509781    -0.13000
F1642       F  0.93603154  0.62819286  0.34708332    -0.15400
F1643       F  0.87664098  0.57373147  0.44135878    -0.15400
F1644       F  0.84487717  0.58886391  0.39040256    -0.13000
C1645       C  0.57806760  0.82819271  0.41935208     0.25000
C1646       C  0.58774134  0.81948892  0.39006754    -0.23100
C1647       C  0.58839995  0.79013664  0.38354265     0.19900
C1648       C  0.57572070  0.77027690  0.40350882     0.24900
C1649       C  0.56287568  0.77865817  0.43206275    -0.23000
C1650       C  0.56577430  0.80799822  0.44019982     0.19800
F1651       F  0.55302230  0.81792881  0.46632979    -0.13000
F1652       F  0.57770588  0.85647515  0.42670720    -0.15400
F1653       F  0.57043400  0.74395609  0.39137329    -0.15400
F1654       F  0.59870711  0.78058286  0.35608680    -0.13000
C1655       C  0.43718895  0.65985572  0.44224323     0.25000
C1656       C  0.41383541  0.67312442  0.42551109    -0.23100
C1657       C  0.40676509  0.70182852  0.43249434     0.19900
C1658       C  0.42767995  0.71853774  0.44901470     0.24900
C1659       C  0.45654316  0.70704817  0.45570309    -0.23000
C1660       C  0.45776254  0.67699473  0.45876159     0.19800
F1661       F  0.47870022  0.66448792  0.47719477    -0.13000
F1662       F  0.44220322  0.63123230  0.43980713    -0.15400
F1663       F  0.42161104  0.74662496  0.45443478    -0.15400
F1664       F  0.38171633  0.71439178  0.42021557    -0.13000
C1665       C  0.47379208  0.81702047  0.35108405     0.25000
C1666       C  0.45851163  0.80423849  0.37575588    -0.23100
C1667       C  0.42854137  0.81301246  0.38272312     0.19900
C1668       C  0.41349027  0.83289473  0.36398884     0.24900
C1669       C  0.42818045  0.84398864  0.33799694    -0.23000
C1670       C  0.45891062  0.83661791  0.33251486     0.19800
F1671       F  0.47376381  0.84628275  0.30730043    -0.13000
F1672       F  0.50260300  0.80894124  0.34354079    -0.15400
F1673       F  0.38383659  0.83933912  0.36973876    -0.15400
F1674       F  0.41372097  0.80203696  0.40729142    -0.13000
C1675       C  0.62334744  0.64974670  0.39503461     0.25000
C1676       C  0.60841511  0.63910480  0.36908857    -0.23100
C1677       C  0.57665216  0.63552609  0.36981955     0.19900
C1678       C  0.55945529  0.64676484  0.39367715     0.24900
C1679       C  0.57391792  0.66194130  0.41757297    -0.23000
C1680       C  0.60614577  0.66089201  0.41937061     0.19800
F1681       F  0.62095195  0.67294842  0.44340044    -0.13000
F1682       F  0.65424513  0.65214904  0.39542015    -0.15400
F1683       F  0.52865076  0.64582424  0.39079345    -0.15400
F1684       F  0.56181474  0.62448561  0.34532265    -0.13000
C1685       C  0.08383874  0.51939140  0.20941788     0.25000
C1686       C  0.05986077  0.53141553  0.19245701    -0.23100
C1687       C  0.05801659  0.56169199  0.19057475     0.19900
C1688       C  0.07705825  0.57920146  0.20856679     0.24900
C1689       C  0.09868111  0.56671137  0.22793017    -0.23000
C1690       C  0.10309936  0.53686529  0.22657933     0.19800
F1691       F  0.12382199  0.52416111  0.24504339    -0.13000
F1692       F  0.08698100  0.49054616  0.21202259    -0.15400
F1693       F  0.07247519  0.60796592  0.20910236    -0.15400
F1694       F  0.03729514  0.57441558  0.17208638    -0.13000
C1695       C  0.06235952  0.93814453  0.12263526     0.25000
C1696       C  0.03125608  0.93242038  0.12959711    -0.23100
C1697       C  0.02531307  0.90893191  0.14940223     0.19900
C1698       C  0.04862137  0.89173948  0.16036248     0.24900
C1699       C  0.07899578  0.90037636  0.15754631    -0.23000
C1700       C  0.08594947  0.92329863  0.13788350     0.19800
F1701       F  0.11523685  0.93257293  0.13513812    -0.13000
F1702       F  0.06999460  0.96126027  0.10543297    -0.15400
F1703       F  0.04108524  0.86975464  0.17913633    -0.15400
F1704       F  0.99803305  0.90531989  0.16348729    -0.13000
C1705       C  0.91035646  0.53646891  0.18604371     0.25000
C1706       C  0.91451073  0.56550926  0.17924242    -0.23100
C1707       C  0.93169731  0.57295897  0.15323624     0.19900
C1708       C  0.94665124  0.55146579  0.13596806     0.24900
C1709       C  0.94485956  0.52224939  0.14481665    -0.23000
C1710       C  0.92650838  0.51554674  0.17051671     0.19800
F1711       F  0.92744597  0.48930822  0.18385798    -0.13000
F1712       F  0.89330521  0.52841653  0.21053332    -0.15400
F1713       F  0.96576592  0.55977007  0.11325943    -0.15400
F1714       F  0.93640473  0.60098426  0.14627885    -0.13000
C1715       C  0.86436852  0.90718372  0.18044814     0.25000
C1716       C  0.87968939  0.88652679  0.19766646    -0.23100
C1717       C  0.90361255  0.87136623  0.18420267     0.19900
C1718       C  0.91696219  0.88140629  0.15731209     0.24900
C1719       C  0.90587951  0.90671924  0.14340386    -0.23000
C1720       C  0.87664228  0.91632068  0.15263179     0.19800
F1721       F  0.86148896  0.93661850  0.13655056    -0.13000
F1722       F  0.83893823  0.92000912  0.19165986    -0.15400
F1723       F  0.94211493  0.86764961  0.14693051    -0.15400
F1724       F  0.91519591  0.84788827  0.19797174    -0.13000
C1725       C  0.56170001  0.69480959  0.13547975     0.25000
C1726       C  0.56414060  0.72404979  0.14412050    -0.23100
C1727       C  0.58248560  0.73070536  0.16985654     0.19900
C1728       C  0.59646596  0.70943647  0.18674236     0.24900
C1729       C  0.59099734  0.68049992  0.18037577    -0.23000
C1730       C  0.57475677  0.67313551  0.15379616     0.19800
F1731       F  0.56887885  0.64517609  0.14732225    -0.13000
F1732       F  0.54376268  0.68681296  0.11174071    -0.15400
F1733       F  0.61248621  0.71725578  0.21199678    -0.15400
F1734       F  0.58301260  0.75743045  0.18219504    -0.13000
C1735       C  0.48028037  0.83849419  0.14890119     0.25000
C1736       C  0.47422603  0.81345933  0.13138132    -0.23100
C1737       C  0.44311762  0.80728379  0.12494894     0.19900
C1738       C  0.41957842  0.82377643  0.13809510     0.24900
C1739       C  0.42644426  0.84831689  0.15550139    -0.23000
C1740       C  0.45696429  0.85690710  0.15791126     0.19800
F1741       F  0.46452394  0.88062419  0.17427661    -0.13000
F1742       F  0.50768613  0.84311695  0.16234081    -0.15400
F1743       F  0.39024950  0.81448070  0.13586100    -0.15400
F1744       F  0.43523694  0.78261849  0.11041862    -0.13000
C1745       C  0.58847781  0.86438223  0.15496931     0.25000
C1746       C  0.59979195  0.83862779  0.14208713    -0.23100
C1747       C  0.62839136  0.82894367  0.15289788     0.19900
C1748       C  0.63935719  0.83850509  0.18113553     0.24900
C1749       C  0.62312248  0.85924112  0.19755029    -0.20600
C1750       C  0.59962701  0.87405406  0.18299808     0.19800
F1751       F  0.58608122  0.89664879  0.19678790    -0.13000
F1752       F  0.56509615  0.87901846  0.14218994    -0.15400
F1753       F  0.66438613  0.82601756  0.19348094    -0.15400
F1754       F  0.64429466  0.80847832  0.13771326    -0.13000
C1755       C  0.42762799  0.72834477  0.21396223     0.25000
C1756       C  0.45050432  0.71568068  0.19606473    -0.23100
C1757       C  0.45016866  0.68545030  0.19246290     0.19900
C1758       C  0.42935619  0.66837376  0.20910069     0.24900
C1759       C  0.40849060  0.68134140  0.22912287    -0.23000
C1760       C  0.40663132  0.71148958  0.22953040     0.19800
F1761       F  0.38698436  0.72486519  0.24866977    -0.13000
F1762       F  0.42721662  0.75707776  0.21904225    -0.15400
F1763       F  0.43128555  0.63936912  0.20750535    -0.15400
F1764       F  0.47029448  0.67233080  0.17354398    -0.13000
C1765       C  0.49450749  0.79492312  0.62934958     0.31400
C1766       C  0.53566218  0.75132106  0.63369205     0.31400
C1767       C  0.49122409  0.77546127  0.65727595    -0.04800
C1768       C  0.49320769  0.77298245  0.60283448    -0.05600
C1769       C  0.52846226  0.80361074  0.62816742    -0.05400
C1770       C  0.51225919  0.75336450  0.65960251    -0.04800
C1771       C  0.51504035  0.75005927  0.60478876    -0.05600
C1772       C  0.54903411  0.78161631  0.63044148    -0.05400
C1773       C  0.49749222  0.73079906  0.67418166    -0.30800
N1774       N  0.46832883  0.73809684  0.68050235     0.15700
C1775       C  0.46435201  0.76503949  0.66986615    -0.30800
H1776       H  0.44231651  0.77519743  0.66792210     0.17600
C1777       C  0.52332134  0.74402262  0.57487809    -0.29800
N1778       N  0.50726503  0.76108255  0.55586869     0.14400
C1779       C  0.48944010  0.77882224  0.57228173    -0.29800
C1780       C  0.57775622  0.79354293  0.62915897    -0.30100
N1781       N  0.57564085  0.82269846  0.62864141     0.14900
H1782       H  0.59845867  0.78137910  0.63161616     0.17500
C1783       C  0.54534684  0.82845873  0.62487161    -0.30100
H1784       H  0.53556892  0.84941601  0.62171952     0.17500
H1785       H  0.47681196  0.79657349  0.56273409     0.17500
H1786       H  0.50695986  0.70969269  0.67763390     0.17600
H1787       H  0.54149738  0.72990064  0.56762735     0.17500
C1788       C  0.96234188  0.49880813  0.63041064     0.31400
C1789       C  0.00440194  0.96036890  0.62734360     0.31400
C1790       C  0.94919596  0.97124633  0.62962299    -0.04800
C1791       C  0.98246797  0.50129973  0.60101879    -0.05600
C1792       C  0.98631582  0.49787325  0.65578501    -0.05400
C1793       C  0.97079698  0.95016403  0.62663547    -0.04800
C1794       C  0.00431867  0.98248516  0.60109017    -0.05600
C1795       C  0.00854451  0.47706364  0.65310227    -0.05400
C1796       C  0.95499783  0.92453478  0.62396139    -0.30800
N1797       N  0.92448745  0.92917719  0.62800083     0.15700
C1798       C  0.92105498  0.95819538  0.62974326    -0.30800
H1799       H  0.90004693  0.96945135  0.63399520     0.17600
C1800       C  0.00925497  0.97754424  0.57055391    -0.29800
N1801       N  0.99147848  0.49100605  0.55189505     0.14400
C1802       C  0.97379498  0.50665316  0.57099629    -0.29800
C1803       C  0.03455180  0.48853203  0.66662314    -0.30100
N1804       N  0.02855156  0.51484601  0.67830352     0.14900
H1805       H  0.05721581  0.47953275  0.66503637     0.17500
C1806       C  0.99915444  0.52074018  0.67146597    -0.30100
H1807       H  0.98809281  0.54105214  0.67557279     0.17500
H1808       H  0.95446282  0.51924907  0.56365239     0.17500
H1809       H  0.96568973  0.90390410  0.62112209     0.17600
H1810       H  0.02300152  0.96061923  0.56080068     0.17500
C1811       C  0.48256831  0.72431722  0.95252761     0.31400
C1812       C  0.53347203  0.75824816  0.94464292     0.31400
C1813       C  0.48150357  0.74549806  0.92542348    -0.04800
C1814       C  0.49196513  0.74707658  0.47772526    -0.05600
C1815       C  0.51326108  0.70835821  0.94699232    -0.05400
C1816       C  0.50715026  0.76261573  0.92230128    -0.04800
C1817       C  0.51844881  0.76468242  0.47457971    -0.05600
C1818       C  0.53885190  0.72581314  0.94450922    -0.05400
C1819       C  0.49913221  0.78620124  0.90535476    -0.30800
N1820       N  0.46974952  0.78367005  0.89670916     0.15700
C1821       C  0.45865293  0.75886425  0.90847094    -0.30800
H1822       H  0.43535213  0.75189397  0.90541997     0.17600
C1823       C  0.52765721  0.77066936  0.50430390    -0.29800
N1824       N  0.50682748  0.75936589  0.52391393     0.14400
C1825       C  0.48556915  0.74462721  0.50820467    -0.29800
C1826       C  0.56361430  0.70872430  0.93879163    -0.30100
N1827       N  0.55398699  0.68136254  0.93447389     0.14900
H1828       H  0.58643333  0.71651862  0.93416388     0.17500
C1829       C  0.52326093  0.68099224  0.93946182    -0.30100
H1830       H  0.50893375  0.66260219  0.93543662     0.17500
H1831       H  0.46847028  0.73082877  0.51845116     0.17500
H1832       H  0.51313481  0.80501675  0.90138717     0.17600
H1833       H  0.54889176  0.78064499  0.51120614     0.17500
C1834       C  0.95959112  0.98988781  0.94312336     0.31400
C1835       C  0.01386668  0.53028634  0.95225398     0.31400
C1836       C  0.95728141  0.52670031  0.94600911    -0.04800
C1837       C  0.98258253  0.98849736  0.47295499    -0.05600
C1838       C  0.98542819  0.98725065  0.91975610    -0.05400
C1839       C  0.98228818  0.54505616  0.94884543    -0.04800
C1840       C  0.00849206  0.50416292  0.47378325    -0.05600
C1841       C  0.01051312  0.00530779  0.92258482    -0.05400
C1842       C  0.97198630  0.57162621  0.93913259    -0.30800
N1843       N  0.94154971  0.57032994  0.93300526     0.15700
C1844       C  0.93229352  0.54309691  0.93874361    -0.30800
H1845       H  0.90986686  0.53469535  0.93332114     0.17600
C1846       C  0.01399004  0.50711170  0.50444155    -0.29800
N1847       N  0.99224771  0.49281963  0.51992726     0.14400
C1848       C  0.97226630  0.98368036  0.50250912    -0.29800
C1849       C  0.03384455  0.99215655  0.90594966    -0.30100
N1850       N  0.02371395  0.96676963  0.89469684     0.14900
H1851       H  0.05690110  0.99978185  0.90276301     0.17500
C1852       C  0.99447491  0.96353474  0.90339170    -0.30100
H1853       H  0.98139789  0.94402522  0.90022457     0.17500
H1854       H  0.95127139  0.97302961  0.50904350     0.17500
H1855       H  0.98617185  0.58982759  0.93383584     0.17600
H1856       H  0.03077942  0.52111705  0.51487593     0.17500
Fe1857     Fe  0.60292936  0.84178945  0.79515068     1.65800
Fe1858     Fe  0.62093916  0.89555603  0.84507854     1.73200
Fe1859     Fe  0.66967310  0.87830024  0.78545577     1.54400
O1860       O  0.67966117  0.83416717  0.78300970    -0.80300
O1861       O  0.63565171  0.93338926  0.82557931    -0.78600
O1862       O  0.63648446  0.81151844  0.79582488    -0.82800
O1863       O  0.60950626  0.84929464  0.74924083    -0.77600
O1864       O  0.69454208  0.87890541  0.82463682    -0.79400
O1865       O  0.57619273  0.90472938  0.82728150    -0.82100
C1866       C  0.62757995  0.86348641  0.73241334     0.98600
C1867       C  0.66469327  0.81144126  0.78947702     1.06100
O1868       O  0.63115525  0.87210145  0.80848081    -1.11100
O1869       O  0.60543806  0.86188355  0.87195453    -0.73600
O1870       O  0.59241900  0.82852943  0.83860700    -0.77000
O1871       O  0.64994027  0.87765454  0.74278965    -0.77700
C1872       C  0.59552825  0.83705859  0.86586445     0.97500
O1873       O  0.56707175  0.86977374  0.79331632    -0.75700
O1874       O  0.66454407  0.88795970  0.86483266    -0.80900
C1875       C  0.65152953  0.94109898  0.80282061     1.00100
C1876       C  0.69045433  0.88156763  0.85305473     1.06100
O1877       O  0.66471645  0.92306627  0.78534942    -0.76500
C1878       C  0.55960395  0.89300476  0.80638652     1.04400
Fe1879     Fe  0.60151531  0.66540946  0.77546068     1.65800
Fe1880     Fe  0.61678602  0.60750186  0.73031135     1.73200
Fe1881     Fe  0.66580115  0.62761163  0.78905157     1.54400
O1882       O  0.67648082  0.67146803  0.79292363    -0.80300
O1883       O  0.63006369  0.57045227  0.75251220    -0.78600
O1884       O  0.63614898  0.69465815  0.77493607    -0.82800
O1885       O  0.60534507  0.65814484  0.82126745    -0.77600
O1886       O  0.69084094  0.62708026  0.74954917    -0.79400
O1887       O  0.57180775  0.60108059  0.74777828    -0.82100
C1888       C  0.61980026  0.64154467  0.83889049     0.98600
C1889       C  0.66330657  0.69435421  0.78444498     1.06100
O1890       O  0.62803262  0.63324246  0.76486570    -1.11100
O1891       O  0.60210606  0.63991229  0.70079552    -0.73600
O1892       O  0.59366323  0.67680716  0.73143416    -0.77000
O1893       O  0.64300864  0.62736481  0.83054630    -0.77700
C1894       C  0.59467152  0.66584496  0.70508145     0.97500
O1895       O  0.56392520  0.63993027  0.77671166    -0.75700
O1896       O  0.66071071  0.61218716  0.71102255    -0.80900
C1897       C  0.64806441  0.56417285  0.77410966     1.00100
C1898       C  0.68647311  0.62058200  0.72170212     1.06100
O1899       O  0.66226681  0.58314516  0.78936071    -0.76500
C1900       C  0.55512169  0.61629222  0.76557999     1.04400
Fe1901     Fe  0.40031578  0.84942394  0.74730489     1.65800
Fe1902     Fe  0.37991100  0.91338333  0.72404120     1.73200
Fe1903     Fe  0.34988805  0.88766175  0.78899434     1.54400
O1904       O  0.33585602  0.84474389  0.78812790    -0.80300
O1905       O  0.35831858  0.94504784  0.74794050    -0.78600
O1906       O  0.36398353  0.82176555  0.75335339    -0.82800
O1907       O  0.41097534  0.84607251  0.79184984    -0.77600
O1908       O  0.31537380  0.89723403  0.75746510    -0.79400
O1909       O  0.42260531  0.92235641  0.74418030    -0.82100
C1910       C  0.40457539  0.85709490  0.81739310     0.98600
C1911       C  0.34293467  0.82215803  0.77332637     1.06100
O1912       O  0.37653535  0.88322896  0.75413127    -1.11100
O1913       O  0.40358808  0.89081614  0.69049960    -0.73600
O1914       O  0.39067078  0.84718875  0.70135223    -0.77000
O1915       O  0.38359716  0.87589382  0.82087140    -0.77700
C1916       C  0.40361539  0.86454953  0.68380431     0.97500
O1917       O  0.43907319  0.87649724  0.74343763    -0.75700
O1918       O  0.33620517  0.90041250  0.70988403    -0.80900
C1919       C  0.35750357  0.95127653  0.77576073     1.00100
C1920       C  0.31331115  0.89656058  0.72814900     1.06100
O1921       O  0.36046172  0.93160601  0.79567079    -0.76500
C1922       C  0.44313029  0.90327032  0.74970404     1.04400
Fe1923     Fe  0.39613263  0.67888380  0.82598021     1.65800
Fe1924     Fe  0.37684965  0.61425050  0.85329002     1.73200
Fe1925     Fe  0.34117375  0.64093854  0.78978301     1.54400
O1926       O  0.32987624  0.68502706  0.79098063    -0.80300
O1927       O  0.36122616  0.58097553  0.82781451    -0.78600
O1928       O  0.35911970  0.70549827  0.82639832    -0.82800
O1929       O  0.39944466  0.68307224  0.78016701    -0.77600
O1930       O  0.30874957  0.63311544  0.82341989    -0.79400
O1931       O  0.42092957  0.60773369  0.83466104    -0.82100
C1932       C  0.39093602  0.67170010  0.75544464     0.98600
C1933       C  0.33802431  0.70686946  0.80669528     1.06100
O1934       O  0.37120301  0.64457374  0.82289621    -1.11100
O1935       O  0.39459584  0.63845001  0.88897307    -0.73600
O1936       O  0.39593132  0.68270028  0.87227166    -0.77000
O1937       O  0.37226659  0.65061024  0.75456788    -0.77700
C1938       C  0.39877874  0.66487217  0.89345507     0.97500
O1939       O  0.43482953  0.65330782  0.82446660    -0.75700
O1940       O  0.33169486  0.62156831  0.86817953    -0.80900
C1941       C  0.35242536  0.57577430  0.80115145     1.00100
C1942       C  0.30799102  0.62790002  0.85212022     1.06100
O1943       O  0.34747113  0.59612260  0.78232621    -0.76500
C1944       C  0.43957358  0.62624271  0.82324489     1.04400
Fe1945     Fe  0.09872588  0.90800450  0.74637400     1.65800
Fe1946     Fe  0.12320569  0.84555706  0.72043043     1.73200
Fe1947     Fe  0.14951504  0.87032752  0.78763113     1.54400
O1948       O  0.16099091  0.91432263  0.78969308    -0.80300
O1949       O  0.14391767  0.81305836  0.74394722    -0.78600
O1950       O  0.13397631  0.93657319  0.75366331    -0.82800
O1951       O  0.08739813  0.90964149  0.79114466    -0.77600
O1952       O  0.18587914  0.86397495  0.75710671    -0.79400
O1953       O  0.07970830  0.83453773  0.73775456    -0.82100
C1954       C  0.09318055  0.89714135  0.81602713     0.98600
C1955       C  0.15362713  0.93692253  0.77496047     1.06100
O1956       O  0.12400124  0.87489568  0.75194857    -1.11100
O1957       O  0.10085197  0.86842575  0.68652097    -0.73600
O1958       O  0.10830106  0.91255285  0.70045813    -0.77000
O1959       O  0.11431071  0.87854602  0.81878235    -0.77700
C1960       C  0.09838669  0.89484458  0.68131684     0.97500
O1961       O  0.06125638  0.87968211  0.74125259    -0.75700
O1962       O  0.16719749  0.86005612  0.70877942    -0.80900
C1963       C  0.14211060  0.80620488  0.77154406     1.00100
C1964       C  0.18914400  0.86474272  0.72790305     1.06100
O1965       O  0.13995460  0.82575829  0.79178119    -0.76500
C1966       C  0.05819609  0.85233854  0.74443534     1.04400
Fe1967     Fe  0.09902475  0.57725181  0.82847219     1.65800
Fe1968     Fe  0.11265437  0.64361790  0.85309060     1.73200
Fe1969     Fe  0.14895405  0.61834502  0.78929958     1.54400
O1970       O  0.16306788  0.57511011  0.78940883    -0.80300
O1971       O  0.12586890  0.67723738  0.82682422    -0.78600
O1972       O  0.13823818  0.55360548  0.82712278    -0.82800
O1973       O  0.09361055  0.57236417  0.78274010    -0.77600
O1974       O  0.18153260  0.62810559  0.82237251    -0.79400
O1975       O  0.06857559  0.64654632  0.83448880    -0.82100
C1976       C  0.09984864  0.58438986  0.75763193     0.98600
C1977       C  0.15764315  0.55304342  0.80572286     1.06100
O1978       O  0.12033691  0.61327141  0.82334917    -1.11100
O1979       O  0.09629325  0.61911906  0.88926841    -0.73600
O1980       O  0.10314053  0.57470504  0.87487486    -0.77000
O1981       O  0.11678030  0.60673674  0.75582900    -0.77700
C1982       C  0.09656126  0.59267069  0.89515053     0.97500
O1983       O  0.05777178  0.59957533  0.82897911    -0.75700
O1984       O  0.15822990  0.63906379  0.86739952    -0.80900
C1985       C  0.13465895  0.68280289  0.80023468     1.00100
C1986       C  0.18210702  0.63362474  0.85111254     1.06100
O1987       O  0.14054064  0.66258741  0.78156016    -0.76500
C1988       C  0.05129917  0.62609623  0.82491015     1.04400
Fe1989     Fe  0.89678469  0.90566934  0.78924627     1.65800
Fe1990     Fe  0.87959861  0.85098042  0.83830216     1.73200
Fe1991     Fe  0.82921455  0.86997072  0.78067473     1.54400
O1992       O  0.81867390  0.91399868  0.78138682    -0.80300
O1993       O  0.86482458  0.81399202  0.81722011    -0.78600
O1994       O  0.86346665  0.93621598  0.78801810    -0.82800
O1995       O  0.89121442  0.89653890  0.74336348    -0.77600
O1996       O  0.80504892  0.86613491  0.82025907    -0.79400
O1997       O  0.92419834  0.84213929  0.81981617    -0.82100
C1998       C  0.87111926  0.88467307  0.72670223     0.98600
C1999       C  0.83480697  0.93667307  0.78440504     1.06100
O2000       O  0.86845665  0.87545832  0.80273438    -1.11100
O2001       O  0.89504303  0.88451981  0.86587596    -0.73600
O2002       O  0.90567904  0.91939549  0.83333597    -0.77000
O2003       O  0.84711346  0.87339141  0.73733684    -0.77700
C2004       C  0.90326332  0.91009193  0.86047734     0.97500
O2005       O  0.93315147  0.87846007  0.78795121    -0.75700
O2006       O  0.83628725  0.85704704  0.85929896    -0.80900
C2007       C  0.84904374  0.80723565  0.79405240     1.00100
C2008       C  0.80980735  0.86248960  0.84841884     1.06100
O2009       O  0.83554571  0.82568625  0.77748497    -0.76500
C2010       C  0.94077101  0.85477147  0.79961055     1.04400
Fe2011     Fe  0.89440127  0.58554467  0.77054735     1.65800
Fe2012     Fe  0.87758194  0.64017071  0.72384683     1.73200
Fe2013     Fe  0.83189646  0.62277530  0.78478350     1.54400
O2014       O  0.82450117  0.57788674  0.79102272    -0.80300
O2015       O  0.87038023  0.67779598  0.74697326    -0.78600
O2016       O  0.86016574  0.55709706  0.76230025    -0.82800
O2017       O  0.88400287  0.58697166  0.81650450    -0.77600
O2018       O  0.80471073  0.61973822  0.74727499    -0.79400
O2019       O  0.92472733  0.64285240  0.73782165    -0.82100
C2020       C  0.87645909  0.60798379  0.83314868     0.98600
C2021       C  0.83515691  0.55605399  0.77674248     1.06100
O2022       O  0.86782923  0.61670905  0.75944643    -1.11100
O2023       O  0.88494055  0.60529110  0.69536001    -0.73600
O2024       O  0.91059192  0.57800412  0.72732938    -0.77000
O2025       O  0.85791115  0.62678410  0.82397257    -0.77700
C2026       C  0.90080166  0.58335364  0.70083945     0.97500
O2027       O  0.92841654  0.61375919  0.77847116    -0.75700
O2028       O  0.83151162  0.63881318  0.70848216    -0.80900
C2029       C  0.85115450  0.68552034  0.76694511     1.00100
C2030       C  0.80694837  0.62806472  0.71981494     1.06100
O2031       O  0.83424798  0.66761883  0.78116716    -0.76500
C2032       C  0.93919205  0.63304127  0.76123888     1.04400
C2033       C  0.84098984  0.75608585  0.80944611     0.25000
C2034       C  0.84691768  0.77635346  0.78637817    -0.23100
C2035       C  0.85353135  0.76663641  0.75679227     0.19900
C2036       C  0.85457614  0.73716723  0.75044741     0.24900
C2037       C  0.84864693  0.71675881  0.77354494    -0.23000
C2038       C  0.84162958  0.72661535  0.80307045     0.19800
F2039       F  0.83684715  0.70773621  0.82615222    -0.13000
F2040       F  0.83485397  0.76488194  0.83835570    -0.15400
F2041       F  0.86163728  0.72863112  0.72165821    -0.15400
F2042       F  0.86061314  0.78564749  0.73440358    -0.13000
C2043       C  0.82429324  0.97984664  0.75391026     0.25000
C2044       C  0.82122046  0.96551769  0.78187245    -0.23100
C2045       C  0.81501870  0.98169278  0.80830587     0.19900
C2046       C  0.81792205  0.51384563  0.80699667     0.24900
C2047       C  0.82054809  0.52742943  0.77854489    -0.23000
C2048       C  0.81845637  0.51063141  0.75183910     0.19800
F2049       F  0.82071990  0.52322849  0.72399531    -0.13000
F2050       F  0.83112438  0.96490632  0.72822109    -0.15400
F2051       F  0.81992959  0.52942219  0.83311703    -0.15400
F2052       F  0.81258762  0.96841099  0.83572715    -0.13000
C2053       C  0.01801374  0.61507006  0.77992968     0.25000
C2054       C  0.02390242  0.63248973  0.80565680    -0.23100
C2055       C  0.00404611  0.65557608  0.81138697     0.19900
C2056       C  0.97732696  0.65904430  0.79367100     0.24900
C2057       C  0.97113271  0.64073098  0.76870299    -0.23000
C2058       C  0.99294905  0.62003519  0.76098957     0.19800
F2059       F  0.98770741  0.60182653  0.73729589    -0.13000
F2060       F  0.03565298  0.59200397  0.77377369    -0.15400
F2061       F  0.95609429  0.67844875  0.80263345    -0.15400
F2062       F  0.00897610  0.67308829  0.83565789    -0.13000
C2063       C  0.02574051  0.84030130  0.79026554     0.25000
C2064       C  0.02866038  0.84209758  0.75818511    -0.23100
C2065       C  0.00182319  0.84058524  0.74072386     0.19900
C2066       C  0.97297614  0.84072926  0.75492942     0.24900
C2067       C  0.96991072  0.84252459  0.78696452    -0.23000
C2068       C  0.99667925  0.84055139  0.80453482     0.19800
F2069       F  0.99492293  0.84180200  0.83540694    -0.13000
F2070       F  0.05114827  0.84107291  0.80794951    -0.15400
F2071       F  0.94771518  0.84154673  0.73717242    -0.15400
F2072       F  0.00330237  0.84063772  0.70983003    -0.13000
C2073       C  0.13612217  0.76490042  0.80883527     0.25000
C2074       C  0.14207655  0.77457813  0.77911539    -0.23100
C2075       C  0.14641954  0.75342882  0.75604876     0.19900
C2076       C  0.14442902  0.72382961  0.76258810     0.24900
C2077       C  0.13783879  0.71424186  0.79229760    -0.23000
C2078       C  0.13418173  0.73546337  0.81536403     0.19800
F2079       F  0.12864649  0.72796746  0.84478149    -0.13000
F2080       F  0.13150022  0.78393822  0.83182579    -0.15400
F2081       F  0.14867382  0.70465429  0.73963303    -0.15400
F2082       F  0.15233920  0.76121077  0.72678383    -0.13000
C2083       C  0.16252163  0.97339477  0.81584212     0.25000
C2084       C  0.16512327  0.96554939  0.78494570    -0.23100
C2085       C  0.17125727  0.98720817  0.76340094     0.19900
C2086       C  0.17556572  0.51718992  0.76669456     0.24900
C2087       C  0.17077649  0.52454831  0.79756986    -0.23000
C2088       C  0.17040183  0.50232860  0.81933558     0.19800
F2089       F  0.16699642  0.50843613  0.84945926    -0.13000
F2090       F  0.15676272  0.95317450  0.83737462    -0.15400
F2091       F  0.17719007  0.53789649  0.74499156    -0.15400
F2092       F  0.17446686  0.98034614  0.73345741    -0.13000
C2093       C  0.26242771  0.65641790  0.86664442     0.25000
C2094       C  0.27724242  0.62963235  0.86604141    -0.23100
C2095       C  0.25950603  0.60458156  0.86849497     0.19900
C2096       C  0.22749226  0.60616481  0.86783873     0.24900
C2097       C  0.21277209  0.63283087  0.86511739    -0.23000
C2098       C  0.23040596  0.65800249  0.86632699     0.19800
F2099       F  0.21679421  0.68396307  0.86329482    -0.13000
F2100       F  0.27898234  0.68096461  0.86381482    -0.15400
F2101       F  0.21094724  0.58150982  0.86616178    -0.15400
F2102       F  0.27310160  0.57847825  0.86739967    -0.13000
C2103       C  0.25954681  0.90988429  0.71538808     0.25000
C2104       C  0.28263263  0.88904984  0.71637054    -0.23100
C2105       C  0.27419598  0.85989023  0.71584430     0.19900
C2106       C  0.24330853  0.85168930  0.71670138     0.24900
C2107       C  0.22019263  0.87248401  0.71704539    -0.23000
C2108       C  0.22858839  0.90166249  0.71534074     0.19800
F2109       F  0.20681423  0.92227694  0.71687336    -0.13000
F2110       F  0.26692997  0.93813285  0.71754874    -0.15400
F2111       F  0.23606603  0.82356258  0.72032781    -0.15400
F2112       F  0.29598316  0.83935823  0.71805920    -0.13000
C2113       C  0.32921458  0.78664753  0.81330966     0.25000
C2114       C  0.32919507  0.79429933  0.78228463    -0.23100
C2115       C  0.32314041  0.77294887  0.76037288     0.19900
C2116       C  0.32088353  0.74401235  0.76904316     0.24900
C2117       C  0.32594105  0.73595856  0.79962843    -0.23000
C2118       C  0.32779545  0.75775921  0.82189044     0.19800
F2119       F  0.33151482  0.75098794  0.85178069    -0.13000
F2120       F  0.33488686  0.80669658  0.83512032    -0.15400
F2121       F  0.31814772  0.72376191  0.74690425    -0.15400
F2122       F  0.32211634  0.77981442  0.73029808    -0.13000
C2123       C  0.35527822  0.53407603  0.76377143     0.25000
C2124       C  0.34930645  0.54442138  0.79318919    -0.23100
C2125       C  0.34399400  0.52392305  0.81658585     0.19900
C2126       C  0.36038406  0.99292541  0.81285848     0.24900
C2127       C  0.35377761  0.98250041  0.78362906    -0.23000
C2128       C  0.34557772  0.00275867  0.76083899     0.19800
F2129       F  0.33747168  0.99389599  0.73243550    -0.13000
F2130       F  0.36066866  0.55271512  0.74059201    -0.15400
F2131       F  0.36759910  0.97457670  0.83574865    -0.15400
F2132       F  0.33676547  0.53272518  0.84524937    -0.13000
C2133       C  0.48724898  0.59531970  0.81389184     0.25000
C2134       C  0.46697959  0.61721881  0.80506813    -0.23100
C2135       C  0.47375857  0.63265637  0.77821722     0.19900
C2136       C  0.50104714  0.62853635  0.76242553     0.24900
C2137       C  0.52293133  0.60909883  0.77301229    -0.23000
C2138       C  0.51533065  0.59160935  0.79822060     0.19800
F2139       F  0.53612300  0.57277385  0.80922235    -0.13000
F2140       F  0.48114047  0.57922609  0.83893867    -0.15400
F2141       F  0.50781646  0.64630237  0.73877324    -0.15400
F2142       F  0.45463352  0.65327432  0.76801378    -0.13000
C2143       C  0.76074735  0.65017413  0.69733764     0.25000
C2144       C  0.77837022  0.62548074  0.70202241    -0.23100
C2145       C  0.76365954  0.59851537  0.70140381     0.19900
C2146       C  0.73171250  0.59664319  0.70085033     0.24900
C2147       C  0.71412579  0.62165855  0.70247083    -0.23000
C2148       C  0.72871235  0.64834301  0.69816603     0.19800
F2149       F  0.71219833  0.67290096  0.69952176    -0.13000
F2150       F  0.77432016  0.67640147  0.69732790    -0.15400
F2151       F  0.71812828  0.57063159  0.70453600    -0.15400
F2152       F  0.77995774  0.57425718  0.70643453    -0.13000
C2153       C  0.49984396  0.91314897  0.74826561     0.25000
C2154       C  0.47263427  0.91111803  0.76508415    -0.23100
C2155       C  0.47491880  0.90984642  0.79724799     0.19900
C2156       C  0.50363182  0.90703801  0.81181949     0.24900
C2157       C  0.53070956  0.90621147  0.79451609    -0.23000
C2158       C  0.52836695  0.91095267  0.76282687     0.19800
F2159       F  0.55399949  0.91128936  0.74556023    -0.13000
F2160       F  0.49891173  0.91562133  0.71746560    -0.15400
F2161       F  0.50465995  0.90238161  0.84235319    -0.15400
F2162       F  0.44913887  0.90880492  0.81441991    -0.13000
C2163       C  0.72996511  0.84881936  0.87349051     0.25000
C2164       C  0.71851290  0.87701353  0.87137548    -0.23100
C2165       C  0.73949321  0.89982958  0.87262889     0.19900
C2166       C  0.77103980  0.89464876  0.87076598     0.24900
C2167       C  0.78230611  0.86651124  0.86786017    -0.23000
C2168       C  0.76160166  0.84359134  0.87143537     0.19800
F2169       F  0.77148869  0.81617483  0.86824329    -0.13000
F2170       F  0.71035648  0.82619930  0.87258043    -0.15400
F2171       F  0.79015506  0.91726062  0.86642313    -0.15400
F2172       F  0.72931756  0.92718063  0.86996242    -0.13000
C2173       C  0.68351291  0.76880173  0.76124267     0.25000
C2174       C  0.67931163  0.78296414  0.78921867    -0.23100
C2175       C  0.67892149  0.76670787  0.81624561     0.19900
C2176       C  0.67872303  0.73666389  0.81500620     0.24900
C2177       C  0.67851267  0.72255130  0.78669141    -0.23000
C2178       C  0.68276072  0.73874515  0.75994563     0.19800
F2179       F  0.68226894  0.72558671  0.73228476    -0.13000
F2180       F  0.68393366  0.78394064  0.73484105    -0.15400
F2181       F  0.67407457  0.72158458  0.84109507    -0.15400
F2182       F  0.67471049  0.77990133  0.84356164    -0.13000
C2183       C  0.65438598  0.99269205  0.82043024     0.25000
C2184       C  0.65345984  0.97250901  0.79634086    -0.23100
C2185       C  0.65123696  0.98275922  0.76628900     0.19900
C2186       C  0.65627576  0.51278892  0.75848095     0.24900
C2187       C  0.65250940  0.53339250  0.78174400    -0.23000
C2188       C  0.65214766  0.52416917  0.81225021     0.19800
F2189       F  0.64894483  0.54346958  0.83527047    -0.13000
F2190       F  0.65705483  0.98371584  0.84977076    -0.15400
F2191       F  0.65783692  0.52108037  0.72883900    -0.15400
F2192       F  0.65050671  0.96411206  0.74247393    -0.13000
C2193       C  0.04085067  0.57947066  0.95763292     0.25000
C2194       C  0.04242192  0.54935894  0.95659311    -0.23100
C2195       C  0.07160671  0.53776762  0.95161299     0.19900
C2196       C  0.09259116  0.55338859  0.93399352     0.24900
C2197       C  0.08545751  0.58159623  0.92490922    -0.23000
C2198       C  0.06172147  0.59569873  0.94050300     0.19800
F2199       F  0.05673485  0.62415780  0.93655078    -0.13000
F2200       F  0.01937554  0.59289708  0.97473456    -0.15400
F2201       F  0.11768945  0.53994559  0.92280835    -0.15400
F2202       F  0.07754042  0.50998494  0.95868151    -0.13000
C2203       C  0.04315021  0.91209236  0.83567961     0.25000
C2204       C  0.07415311  0.90668651  0.84178302    -0.23100
C2205       C  0.08762374  0.91904117  0.86778653     0.19900
C2206       C  0.07098057  0.93847593  0.88579667     0.24900
C2207       C  0.04070318  0.94555394  0.87797970    -0.23000
C2208       C  0.02670929  0.93131720  0.85343817     0.19800
F2209       F  0.99774242  0.93785972  0.84496703    -0.13000
F2210       F  0.02966801  0.90123404  0.81025945    -0.15400
F2211       F  0.08461370  0.95083938  0.91032618    -0.15400
F2212       F  0.11754295  0.91440073  0.87408414    -0.13000
C2213       C  0.90953264  0.96002569  0.88020276     0.25000
C2214       C  0.91001939  0.93053595  0.88621356    -0.23100
C2215       C  0.91833214  0.92175474  0.91597521     0.19900
C2216       C  0.92985345  0.94184187  0.93753494     0.24900
C2217       C  0.93351483  0.97109476  0.92969051    -0.23000
C2218       C  0.92162658  0.97967139  0.90082034     0.19800
F2219       F  0.92699893  0.00619582  0.88929332    -0.13000
F2220       F  0.89970159  0.97012112  0.85285169    -0.15400
F2221       F  0.94063646  0.93201310  0.96452538    -0.15400
F2222       F  0.91743096  0.89356163  0.92356540    -0.13000
C2223       C  0.92240145  0.61403282  0.86454434     0.25000
C2224       C  0.89074973  0.60975384  0.86336587    -0.23100
C2225       C  0.87550910  0.59935861  0.88919862     0.19900
C2226       C  0.89232386  0.58966918  0.91435305     0.24900
C2227       C  0.92461301  0.58966701  0.91354428    -0.23000
C2228       C  0.93929928  0.60409662  0.88924608     0.19800
F2229       F  0.97014352  0.60565931  0.88706498    -0.13000
F2230       F  0.93747524  0.62490932  0.84009265    -0.15400
F2231       F  0.87715321  0.57790201  0.93830387    -0.15400
F2232       F  0.84472711  0.59582179  0.88878977    -0.13000
C2233       C  0.57777355  0.82535840  0.92013355     0.25000
C2234       C  0.58732521  0.81658562  0.89077480    -0.23100
C2235       C  0.58658956  0.78727640  0.88387718     0.19900
C2236       C  0.57207560  0.76800606  0.90308756     0.24900
C2237       C  0.56005287  0.77647903  0.93193433    -0.23000
C2238       C  0.56445427  0.80544850  0.94063865     0.19800
F2239       F  0.55240650  0.81539088  0.96710825    -0.13000
F2240       F  0.57892265  0.85348891  0.92806396    -0.15400
F2241       F  0.56478726  0.74242877  0.89013954    -0.15400
F2242       F  0.59717702  0.77727022  0.85670530    -0.13000
C2243       C  0.43320591  0.66075906  0.93883886     0.25000
C2244       C  0.41029524  0.67571594  0.92304922    -0.23100
C2245       C  0.40404708  0.70413902  0.93207759     0.19900
C2246       C  0.42473975  0.71878918  0.95091023     0.24900
C2247       C  0.45328580  0.70627767  0.95664849    -0.23000
C2248       C  0.45389176  0.67613974  0.95703346     0.19800
F2249       F  0.47426409  0.66192561  0.97465820    -0.13000
F2250       F  0.43774019  0.63232965  0.93403215    -0.15400
F2251       F  0.41944644  0.74658592  0.95852181    -0.15400
F2252       F  0.38021399  0.71864697  0.91980417    -0.13000
C2253       C  0.46824745  0.81752648  0.85416605     0.25000
C2254       C  0.45363838  0.80485068  0.87921797    -0.23100
C2255       C  0.42384587  0.81368035  0.88699187     0.19900
C2256       C  0.40844092  0.83386075  0.86884465     0.24900
C2257       C  0.42272708  0.84539154  0.84284308    -0.23000
C2258       C  0.45322375  0.83770586  0.83648325     0.19800
F2259       F  0.46758372  0.84755664  0.81107397    -0.13000
F2260       F  0.49644085  0.80870744  0.84534729    -0.15400
F2261       F  0.37888620  0.84023700  0.87517605    -0.15400
F2262       F  0.40950662  0.80240178  0.91169616    -0.13000
C2263       C  0.62163711  0.65145306  0.89469161     0.25000
C2264       C  0.60705829  0.63871925  0.86968409    -0.23100
C2265       C  0.57594759  0.63180789  0.87176859     0.19900
C2266       C  0.55823282  0.64289662  0.89537344     0.24900
C2267       C  0.57185701  0.66025539  0.91807228    -0.23000
C2268       C  0.60414677  0.66142179  0.91929510     0.19800
F2269       F  0.61850857  0.67499303  0.94268127    -0.13000
F2270       F  0.65199001  0.65741271  0.89362940    -0.15400
F2271       F  0.52755148  0.63959312  0.89322981    -0.15400
F2272       F  0.56185713  0.61796449  0.84837690    -0.13000
C2273       C  0.07277124  0.52159606  0.71242578     0.25000
C2274       C  0.05005062  0.53354083  0.69379904    -0.23100
C2275       C  0.04781849  0.56385071  0.69229599     0.19900
C2276       C  0.06618939  0.58145308  0.71097692     0.24900
C2277       C  0.08753525  0.56906812  0.73076557    -0.23000
C2278       C  0.09130243  0.53908885  0.73033341     0.19800
F2279       F  0.11105914  0.52633778  0.74986192    -0.13000
F2280       F  0.07544316  0.49275633  0.71556083    -0.15400
F2281       F  0.06128939  0.61017801  0.71160014    -0.15400
F2282       F  0.02749957  0.57653433  0.67333676    -0.13000
C2283       C  0.05938555  0.94118254  0.62182778     0.25000
C2284       C  0.02849094  0.93661215  0.63052317    -0.23100
C2285       C  0.02275703  0.91460897  0.65211936     0.19900
C2286       C  0.04603426  0.89762256  0.66332184     0.24900
C2287       C  0.07648283  0.90472884  0.65796796    -0.23000
C2288       C  0.08322196  0.92605669  0.63634417     0.19800
F2289       F  0.11270666  0.93335783  0.63063759    -0.13000
F2290       F  0.06695754  0.96300917  0.60283352    -0.15400
F2291       F  0.03879692  0.87732400  0.68413539    -0.15400
F2292       F  0.99575330  0.91243294  0.66712259    -0.13000
C2293       C  0.90718325  0.53324261  0.68550599     0.25000
C2294       C  0.90807911  0.56207691  0.67691708    -0.23100
C2295       C  0.92078422  0.56948296  0.64845709     0.19900
C2296       C  0.93575096  0.54851376  0.63061248     0.24900
C2297       C  0.93780552  0.51992643  0.64109187    -0.23000
C2298       C  0.92236394  0.51274359  0.66856415     0.19800
F2299       F  0.92609018  0.48676662  0.68207118    -0.13000
F2300       F  0.89439134  0.52521080  0.71247773    -0.15400
F2301       F  0.95111309  0.55703223  0.60534218    -0.15400
F2302       F  0.92132992  0.59728889  0.63938035    -0.13000
C2303       C  0.86042478  0.90767868  0.67703677     0.25000
C2304       C  0.87538331  0.88622100  0.69349322    -0.23100
C2305       C  0.89922953  0.87133035  0.67946038     0.19900
C2306       C  0.91274541  0.88228183  0.65297579     0.24900
C2307       C  0.90271314  0.90879348  0.64090666    -0.23000
C2308       C  0.87342750  0.91823571  0.65012934     0.19800
F2309       F  0.85868678  0.93937062  0.63491974    -0.13000
F2310       F  0.83502483  0.92030929  0.68853118    -0.15400
F2311       F  0.93666351  0.86787256  0.64082291    -0.15400
F2312       F  0.91045815  0.84718397  0.69232329    -0.13000
C2313       C  0.55449708  0.69884875  0.63633304     0.25000
C2314       C  0.55895117  0.72833708  0.64296893    -0.23100
C2315       C  0.57893921  0.73525923  0.66740409     0.19900
C2316       C  0.59445032  0.71433634  0.68333300     0.24900
C2317       C  0.58710934  0.68535463  0.67940334    -0.23000
C2318       C  0.56801180  0.67750387  0.65485664     0.19800
F2319       F  0.55999728  0.64962029  0.65072088    -0.13000
F2320       F  0.53385496  0.69065394  0.61493877    -0.15400
F2321       F  0.61370317  0.72285946  0.70596225    -0.15400
F2322       F  0.57982032  0.76187261  0.67997408    -0.13000
C2323       C  0.47844955  0.84221247  0.65347831     0.25000
C2324       C  0.47153131  0.81967800  0.63270648    -0.23100
C2325       C  0.44032896  0.81561337  0.62509999     0.19900
C2326       C  0.41734201  0.83146776  0.64007721     0.24900
C2327       C  0.42512159  0.85353295  0.66054521    -0.23000
C2328       C  0.45591402  0.86023175  0.66473355     0.19800
F2329       F  0.46426004  0.88118970  0.68453848    -0.13000
F2330       F  0.50587910  0.84419382  0.66764021    -0.15400
F2331       F  0.38762014  0.82394398  0.63625785    -0.15400
F2332       F  0.43167587  0.79336335  0.60706426    -0.13000
C2333       C  0.58713327  0.86756874  0.65775002     0.25000
C2334       C  0.59717941  0.84148882  0.64446582    -0.23100
C2335       C  0.62540153  0.83051249  0.65500126     0.19900
C2336       C  0.63737752  0.83972692  0.68293025     0.24900
C2337       C  0.62286800  0.86153439  0.69934618    -0.20600
C2338       C  0.59957724  0.87706580  0.68534126     0.19800
F2339       F  0.58746738  0.90028776  0.69935000    -0.13000
F2340       F  0.56395706  0.88297612  0.64567252    -0.15400
F2341       F  0.66137838  0.82556059  0.69528195    -0.15400
F2342       F  0.64019551  0.80934174  0.63981259    -0.13000
C2343       C  0.42210232  0.73316545  0.71215749     0.25000
C2344       C  0.44488209  0.72029136  0.69424382    -0.23100
C2345       C  0.44484871  0.68997043  0.69149887     0.19900
C2346       C  0.42424894  0.67312483  0.70860904     0.24900
C2347       C  0.40314350  0.68633299  0.72814424    -0.23000
C2348       C  0.40136779  0.71648040  0.72836008     0.19800
F2349       F  0.38201722  0.73002083  0.74774262    -0.13000
F2350       F  0.42165927  0.76197029  0.71671330    -0.15400
F2351       F  0.42683897  0.64412776  0.70825313    -0.15400
F2352       F  0.46520654  0.67650032  0.67312074    -0.13000
loop_ 
_geom_bond_atom_site_label_1 
_geom_bond_atom_site_label_2 
_geom_bond_distance 
_geom_bond_site_symmetry_2 
_ccdc_geom_bond_type 
C1            C3   1.527       .  S
C1            C5   1.534       .  S
C1            C4   1.541       .  S
C1          C560   1.533       .  S
C2            C6   1.533       .  S
C2            C8   1.545       .  S
C2            C7   1.555       .  S
C2          C550   1.536       .  S
C3           C11   1.380       .  A
C3            C6   1.389       .  A
C4           C15   1.376       .  A
C4            C7   1.434       .  A
C5           C19   1.373       .  A
C5            C8   1.374       .  A
C6            C9   1.389       .  A
C7           C13   1.386       .  A
C8           C16   1.382       .  A
C9           N10   1.351       .  A
C9           H22   1.081       .  S
N10          C11   1.351       .  A
N10         C580   1.442       .  S
C11          H12   1.082       .  S
C13          N14   1.350       .  A
C13          H23   1.082       .  S
N14          C15   1.344       .  A
N14          N60   1.400       .  S
C15          H21   1.082       .  S
C16          N17   1.367       .  A
C16          H18   1.077       .  S
N17          C19   1.362       .  A
N17         C570   1.462       .  S
C19          H20   1.075       .  S
C24          C28   1.528       .  S
C24          C27   1.562   1_565  S
C24         C533   1.536   1_565  S
C24        C1202   1.524       .  S
C25          C29   1.545   1_455  S
C25          C30   1.545       .  S
C25         C520   1.541       .  S
C25        C1207   1.533       .  S
C26        C1200   1.532       .  S
C26          C34   1.372       .  A
C26          C29   1.375       .  A
C27          C38   1.392       .  A
C27        C1206   1.443   1_645  A
C28          C42   1.387   1_665  A
C28          C31   1.385   1_655  A
C29          C32   1.384       .  A
C30          C36   1.376       .  A
C30        C1203   1.437   1_455  A
C31        C1201   1.533       .  S
C31          C39   1.387       .  A
C32          N33   1.363       .  A
C32          H45   1.078       .  S
N33          C34   1.362       .  A
N33         C543   1.457       .  S
C34          H35   1.077       .  S
C36        N1213   1.346   1_455  A
C36          H46   1.081       .  S
N37          C38   1.354   1_565  A
N37        C1212   1.347   1_655  A
N37          N83   1.405       .  S
C38          H44   1.082       .  S
C39          N40   1.353   1_565  A
C39          H41   1.080       .  S
N40          C42   1.350       .  A
N40         C510   1.447       .  S
C42          H43   1.081   1_455  S
C47          C49   1.544       .  S
C47          C51   1.551       .  S
C47         C483   1.546       .  S
C47         C638   1.540       .  S
C48          C52   1.531       .  S
C48          C54   1.541       .  S
C48         C473   1.553       .  S
C48         C641   1.551       .  S
C49          C57   1.399       .  A
C49          C52   1.387       .  A
C50         C635   1.539       .  S
C50          C61   1.371   1_556  A
C50          C53   1.429       .  A
C51          C65   1.384       .  A
C51          C54   1.399       .  A
C52          C55   1.373       .  A
C53         C636   1.550       .  S
C53          C59   1.389   1_556  A
C54          C62   1.378       .  A
C55          N56   1.344       .  A
C55          H68   1.082       .  S
N56          C57   1.355       .  A
N56         C490   1.440       .  S
C57          H58   1.079       .  S
C59          N60   1.354       .  A
C59          H69   1.082       .  S
N60          C61   1.343       .  A
C61          H67   1.083       .  S
C62          N63   1.350       .  A
C62          H64   1.082       .  S
N63          C65   1.352       .  A
N63         C503   1.431       .  S
C65          H66   1.081       .  S
C70          C74   1.529       .  S
C70         C453   1.546       .  S
C70        C1248   1.531       .  S
C70         C661   1.553       .  S
C71          C75   1.560   1_455  S
C71         C430   1.538       .  S
C71        C1253   1.550       .  S
C71         C664   1.541       .  S
C72        C1246   1.533   1_545  S
C72          C80   1.371       .  A
C72          C75   1.386       .  A
C73         C658   1.555       .  S
C73          C84   1.392   1_556  A
C73        C1252   1.425   1_655  A
C74          C88   1.377       .  A
C74          C77   1.381   1_655  A
C75          C78   1.393       .  A
C76         C659   1.537       .  S
C76          C82   1.368   1_556  A
C76        C1249   1.427   1_445  A
C77        C1247   1.548       .  S
C77          C85   1.397       .  A
C78          N79   1.366       .  A
C78          H91   1.075       .  S
N79          C80   1.355       .  A
N79         C463   1.454       .  S
C80          H81   1.080       .  S
C82          N83   1.344   1_445  A
C82          H92   1.082       .  S
N83        C1260   1.361       .  A
C84        N1259   1.359       .  A
C84          H90   1.082       .  S
C85          N86   1.357       .  A
C85          H87   1.079       .  S
N86          C88   1.345   1_455  A
N86         C443   1.441       .  S
C88          H89   1.081       .  S
Fe93        O109   2.037       .  S
Fe93         O99   2.080       .  S
Fe93        O106   2.070       .  S
Fe93         O98   2.038       .  S
Fe93        O104   1.944       .  S
Fe94         O97   2.055       .  S
Fe94        O101   2.172       .  S
Fe94        O105   2.083       .  S
Fe94        O110   2.148       .  S
Fe94        O104   1.967       .  S
Fe95        O113   2.095       .  S
Fe95        O100   2.040       .  S
Fe95        O107   2.060       .  S
Fe95         O96   2.114       .  S
Fe95        O104   1.963       .  S
O96         C103   1.278       .  A
O97         C111   1.267       .  A
O98         C103   1.265       .  A
O99         C102   1.269       .  A
O100        C112   1.267       .  A
O101        C114   1.294       .  A
C102        O107   1.263       .  A
C102        C573   1.470       .  S
C103        C410   1.474       .  S
O105        C108   1.265       .  A
O106        C108   1.268       .  A
C108        C470   1.493       .  S
O109        C114   1.267       .  A
O110        C112   1.287       .  A
C111        O113   1.275       .  A
C111        C420   1.489       .  S
C112        C400   1.492       .  S
C114        C393   1.505       .  S
Fe115       O131   2.018       .  S
Fe115       O121   2.050       .  S
Fe115       O128   2.039       .  S
Fe115       O120   2.037       .  S
Fe115       O126   1.933       .  S
Fe116       O119   2.048       .  S
Fe116       O123   2.164       .  S
Fe116       O127   2.082       .  S
Fe116       O132   2.125       .  S
Fe116       O126   1.947       .  S
Fe117       O135   2.092       .  S
Fe117       O122   2.042       .  S
Fe117       O129   2.075       .  S
Fe117       O118   2.126       .  S
Fe117       O126   1.946       .  S
O118        C125   1.282       .  A
O119        C133   1.264       .  A
O120        C125   1.267       .  A
O121        C124   1.261       .  A
O122        C134   1.273       .  A
O123        C136   1.295       .  A
C124        O129   1.266       .  A
C124        C500   1.465       .  S
C125        C413   1.478       .  S
O127        C130   1.262       .  A
O128        C130   1.259       .  A
C130        C553   1.473       .  S
O131        C136   1.267       .  A
O132        C134   1.287       .  A
C133        O135   1.273       .  A
C133        C423   1.480       .  S
C134        C383   1.476       .  S
C136        C373   1.492       .  S
Fe137       O153   2.119       .  S
Fe137       O143   2.008       .  S
Fe137       O150   2.059       .  S
Fe137       O142   2.059       .  S
Fe137       O148   1.911       .  S
Fe138       O141   2.050       .  S
Fe138       O145   2.110       .  S
Fe138       O149   2.080       .  S
Fe138       O154   2.094       .  S
Fe138       O148   1.945       .  S
Fe139       O157   2.134       .  S
Fe139       O144   2.112       .  S
Fe139       O151   2.111       .  S
Fe139       O140   2.107       .  S
Fe139       O148   1.929       .  S
O140        C147   1.279       .  A
O141        C155   1.253       .  A
O142        C147   1.271       .  A
O143        C146   1.261       .  A
O144        C156   1.291       .  A
O145        C158   1.290       .  A
C146        O151   1.281       .  A
C146        C493   1.478       .  S
C147        C350   1.489       .  S
O149        C152   1.257       .  A
O150        C152   1.251       .  A
C152        C563   1.471       .  S
O153        C158   1.290       .  A
O154        C156   1.292       .  A
C155        O157   1.275       .  A
C155        C363   1.500       .  S
C156        C340   1.483       .  S
C158        C390   1.505       .  S
Fe159       O175   2.085       .  S
Fe159       O165   2.004       .  S
Fe159       O172   2.032       .  S
Fe159       O164   2.057       .  S
Fe159       O170   1.940       .  S
Fe160       O163   2.032       .  S
Fe160       O167   2.108       .  S
Fe160       O171   2.084       .  S
Fe160       O176   2.108       .  S
Fe160       O170   1.958       .  S
Fe161       O179   2.125       .  S
Fe161       O166   2.079       .  S
Fe161       O173   2.102       .  S
Fe161       O162   2.108       .  S
Fe161       O170   1.966       .  S
O162        C169   1.278       .  A
O163        C177   1.256       .  A
O164        C169   1.270       .  A
O165        C168   1.258       .  A
O166        C178   1.282       .  A
O167        C180   1.285       .  A
C168        O173   1.275       .  A
C168        C583   1.472       .  S
C169        C353   1.492       .  S
O171        C174   1.261       .  A
O172        C174   1.253       .  A
C174        C480   1.479       .  S
O175        C180   1.280       .  A
O176        C178   1.289       .  A
C177        O179   1.275       .  A
C177        C360   1.509       .  S
C178        C330   1.482       .  S
C180        C370   1.491       .  S
Fe181       O197   2.114       .  S
Fe181       O187   2.023       .  S
Fe181       O194   2.071       .  S
Fe181       O186   2.071       .  S
Fe181       O192   1.916       .  S
Fe182       O185   2.049       .  S
Fe182       O189   2.104       .  S
Fe182       O193   2.076       .  S
Fe182       O198   2.088       .  S
Fe182       O192   1.934       .  S
Fe183       O201   2.131       .  S
Fe183       O188   2.112       .  S
Fe183       O195   2.112       .  S
Fe183       O184   2.090       .  S
Fe183       O192   1.926       .  S
O184        C191   1.275       .  A
O185        C199   1.253       .  A
O186        C191   1.273       .  A
O187        C190   1.264       .  A
O188        C200   1.292       .  A
O189        C202   1.290       .  A
C190        O195   1.281       .  A
C190        C440   1.479       .  S
C191        C320   1.483       .  S
O193        C196   1.259       .  A
O194        C196   1.255       .  A
C196        C523   1.481       .  S
O197        C202   1.290       .  A
O198        C200   1.292       .  A
C199        O201   1.275       .  A
C199        C310   1.514       .  S
C200        C343   1.482       .  S
C202        C300   1.497       .  S
Fe203       O219   2.069       .  S
Fe203       O209   2.025       .  S
Fe203       O216   2.034       .  S
Fe203       O208   2.049       .  S
Fe203       O214   1.941       .  S
Fe204       O207   2.019       .  S
Fe204       O211   2.121       .  S
Fe204       O215   2.064       .  S
Fe204       O220   2.114       .  S
Fe204       O214   1.965       .  S
Fe205       O223   2.142       .  S
Fe205       O210   2.074       .  S
Fe205       O217   2.103       .  S
Fe205       O206   2.128       .  S
Fe205       O214   1.971       .  S
O206        C213   1.281       .  A
O207        C221   1.253       .  A
O208        C213   1.268       .  A
O209        C212   1.261       .  A
O210        C222   1.280       .  A
O211        C224   1.287       .  A
C212        O217   1.276       .  A
C212        C513   1.476       .  S
C213        C323   1.498       .  S
O215        C218   1.258       .  A
O216        C218   1.255       .  A
C218        C433   1.473       .  S
O219        C224   1.279       .  A
O220        C222   1.289       .  A
C221        O223   1.279       .  A
C221        C313   1.515       .  S
C222        C333   1.482       .  S
C224        C290   1.498       .  S
Fe225       O241   2.030       .  S
Fe225       O231   2.082       .  S
Fe225       O238   2.073       .  S
Fe225       O230   2.027       .  S
Fe225       O236   1.947       .  S
Fe226       O229   2.050       .  S
Fe226       O233   2.161       .  S
Fe226       O237   2.071       .  S
Fe226       O242   2.140       .  S
Fe226       O236   1.970       .  S
Fe227       O245   2.108       .  S
Fe227       O232   2.035       .  S
Fe227       O239   2.059       .  S
Fe227       O228   2.123       .  S
Fe227       O236   1.972       .  S
O228        C235   1.279       .  A
O229        C243   1.267       .  A
O230        C235   1.262       .  A
O231        C234   1.272       .  A
O232        C244   1.265       .  A
O233        C246   1.289       .  A
C234        O239   1.263       .  A
C234        C540   1.469       .  S
C235        C280   1.476       .  S
O237        C240   1.264       .  A
O238        C240   1.269       .  A
C240        C450   1.493       .  S
O241        C246   1.267       .  A
O242        C244   1.285       .  A
C243        O245   1.277       .  A
C243        C270   1.500       .  S
C244        C403   1.489       .  S
C246        C303   1.503       .  S
Fe247       O263   2.036       .  S
Fe247       O253   2.068       .  S
Fe247       O260   2.062       .  S
Fe247       O252   2.030       .  S
Fe247       O258   1.932       .  S
Fe248       O251   2.052       .  S
Fe248       O255   2.146       .  S
Fe248       O259   2.072       .  S
Fe248       O264   2.128       .  S
Fe248       O258   1.954       .  S
Fe249       O267   2.112       .  S
Fe249       O254   2.032       .  S
Fe249       O261   2.073       .  S
Fe249       O250   2.138       .  S
Fe249       O258   1.955       .  S
O250        C257   1.283       .  A
O251        C265   1.266       .  A
O252        C257   1.264       .  A
O253        C256   1.265       .  A
O254        C266   1.268       .  A
O255        C268   1.290       .  A
C256        O261   1.265       .  A
C256        C460   1.468       .  S
C257        C283   1.479       .  S
O259        C262   1.263       .  A
O260        C262   1.266       .  A
C262        C530   1.482       .  S
O263        C268   1.268       .  A
O264        C266   1.284       .  A
C265        O267   1.277       .  A
C265        C273   1.486       .  S
C266        C380   1.480       .  S
C268        C293   1.484       .  S
C269        C270   1.413       .  A
C269        C274   1.411       .  A
C269        F276   1.357       .  S
C270        C271   1.414       .  A
C271        C272   1.399       .  A
C271        F278   1.359       .  S
C272        C273   1.404       .  A
C272        F277   1.359       .  S
C273        C274   1.407       .  A
C274        F275   1.357       .  S
C279        C280   1.403       .  A
C279       C1460   1.402       .  A
C279        F286   1.357       .  S
C280        C281   1.409       .  A
C281       C1458   1.402       .  A
C281        F288   1.358       .  S
C282        C283   1.404       .  A
C282       C1457   1.403   1_545  A
C282        F287   1.358       .  S
C283        C284   1.410       .  A
C284       C1455   1.403   1_545  A
C284        F285   1.357       .  S
C289        C290   1.413       .  A
C289        C294   1.398   1_455  A
C289        F296   1.355       .  S
C290        C291   1.408       .  A
C291        C292   1.416   1_455  A
C291        F298   1.357       .  S
C292        C293   1.414       .  A
C292        F297   1.357       .  S
C293        C294   1.399       .  A
C294        F295   1.359       .  S
C299        C300   1.417       .  A
C299        C304   1.419   1_455  A
C299        F306   1.357       .  S
C300        C301   1.400       .  A
C301        C302   1.399   1_455  A
C301        F308   1.354       .  S
C302        C303   1.410       .  A
C302        F307   1.351       .  S
C303        C304   1.408       .  A
C304        F305   1.357       .  S
C309        C310   1.403       .  A
C309        C314   1.407       .  A
C309        F316   1.357       .  S
C310        C311   1.425       .  A
C311        C312   1.412       .  A
C311        F318   1.358       .  S
C312        C313   1.405       .  A
C312        F317   1.357       .  S
C313        C314   1.425       .  A
C314        F315   1.358       .  S
C319        C320   1.405       .  A
C319       C1500   1.399       .  A
C319        F326   1.357       .  S
C320        C321   1.406       .  A
C321       C1498   1.407       .  A
C321        F328   1.357       .  S
C322        C323   1.411       .  A
C322       C1497   1.408   1_545  A
C322        F327   1.358       .  S
C323        C324   1.412   1_545  A
C324       C1495   1.403       .  A
C324        F325   1.358   1_565  S
C329        C330   1.409       .  A
C329        C334   1.404       .  A
C329        F336   1.358       .  S
C330        C331   1.404       .  A
C331        C332   1.407       .  A
C331        F338   1.358       .  S
C332        C333   1.410       .  A
C332        F337   1.358       .  S
C333        C334   1.403       .  A
C334        F335   1.358       .  S
C339        C340   1.405       .  A
C339        C344   1.405       .  A
C339        F346   1.358       .  S
C340        C341   1.409       .  A
C341        C342   1.406       .  A
C341        F348   1.358       .  S
C342        C343   1.403       .  A
C342        F347   1.357       .  S
C343        C344   1.408       .  A
C344        F345   1.357       .  S
C349        C350   1.409       .  A
C349        C354   1.404       .  A
C349        F356   1.357       .  S
C350        C351   1.408       .  A
C351        C352   1.404       .  A
C351        F358   1.358       .  S
C352        C353   1.410       .  A
C352        F357   1.358       .  S
C353        C354   1.409       .  A
C354        F355   1.358       .  S
C359        C360   1.408       .  A
C359       C1540   1.413   1_545  A
C359        F366   1.358       .  S
C360        C361   1.421       .  A
C361       C1538   1.402   1_545  A
C361        F368   1.358       .  S
C362        C363   1.401       .  A
C362       C1537   1.407       .  A
C362        F367   1.358       .  S
C363        C364   1.417       .  A
C364       C1535   1.414       .  A
C364        F365   1.358       .  S
C369        C370   1.401       .  A
C369        C374   1.407       .  A
C369        F376   1.357       .  S
C370        C371   1.414       .  A
C371        C372   1.411       .  A
C371        F378   1.357       .  S
C372        C373   1.404       .  A
C372        F377   1.357       .  S
C373        C374   1.416       .  A
C374        F375   1.358       .  S
C379        C380   1.402       .  A
C379        C384   1.405       .  A
C379        F386   1.357       .  S
C380        C381   1.411       .  A
C381        C382   1.402       .  A
C381        F388   1.357       .  S
C382        C383   1.403       .  A
C382        F387   1.359       .  S
C383        C384   1.409       .  A
C384        F385   1.357       .  S
C389        C390   1.404       .  A
C389        C394   1.412       .  A
C389        F396   1.357       .  S
C390        C391   1.414       .  A
C391        C392   1.416       .  A
C391        F398   1.356       .  S
C392        C393   1.407       .  A
C392        F397   1.357       .  S
C393        C394   1.413       .  A
C394        F395   1.354       .  S
C399        C400   1.412       .  A
C399        C404   1.409       .  A
C399        F406   1.357       .  S
C400        C401   1.407       .  A
C401        C402   1.409       .  A
C401        F408   1.358       .  S
C402        C403   1.411       .  A
C402        F407   1.358       .  S
C403        C404   1.405       .  A
C404        F405   1.358       .  S
C409        C410   1.403       .  A
C409        C414   1.399       .  A
C409        F416   1.355       .  S
C410        C411   1.406       .  A
C411        C412   1.401       .  A
C411        F418   1.358       .  S
C412        C413   1.407       .  A
C412        F417   1.358       .  S
C413        C414   1.407       .  A
C414        F415   1.357       .  S
C419        C420   1.412       .  A
C419       C1600   1.403       .  A
C419        F426   1.358       .  S
C420        C421   1.407       .  A
C421       C1598   1.404       .  A
C421        F428   1.358       .  S
C422        C423   1.410       .  A
C422       C1597   1.403   1_545  A
C422        F427   1.358       .  S
C423        C424   1.401       .  A
C424       C1595   1.402   1_545  A
C424        F425   1.358       .  S
C429        C430   1.407       .  A
C429        C434   1.400       .  A
C429        F436   1.355       .  S
C430        C431   1.406       .  A
C431        C432   1.399       .  A
C431        F438   1.358       .  S
C432        C433   1.407       .  A
C432        F437   1.358       .  S
C433        C434   1.405       .  A
C434        F435   1.357       .  S
C439        C440   1.411       .  A
C439        C444   1.394       .  A
C439        F446   1.358       .  S
C440        C441   1.406       .  A
C441        C442   1.406       .  A
C441        F448   1.356       .  S
C442        C443   1.409       .  A
C442        F447   1.356       .  S
C443        C444   1.404       .  A
C444        F445   1.358   1_455  S
C449        C450   1.400       .  A
C449        C454   1.391       .  A
C449        F456   1.360       .  S
C450        C451   1.411       .  A
C451        C452   1.414       .  A
C451        F458   1.357       .  S
C452        C453   1.415       .  A
C452        F457   1.355       .  S
C453        C454   1.426       .  A
C454        F455   1.357       .  S
C459        C460   1.399       .  A
C459        C464   1.395       .  A
C459        F466   1.353       .  S
C460        C461   1.399       .  A
C461        C462   1.403       .  A
C461        F468   1.358       .  S
C462        C463   1.418       .  A
C462        F467   1.357       .  S
C463        C464   1.413       .  A
C464        F465   1.354       .  S
C469        C470   1.409       .  A
C469        C474   1.418       .  A
C469        F476   1.357       .  S
C470        C471   1.398       .  A
C471        C472   1.390       .  A
C471        F478   1.360       .  S
C472        C473   1.425       .  A
C472        F477   1.357       .  S
C473        C474   1.419       .  A
C474        F475   1.354       .  S
C479        C480   1.405       .  A
C479        C484   1.402       .  A
C479        F486   1.358       .  S
C480        C481   1.410       .  A
C481        C482   1.402       .  A
C481        F488   1.357       .  S
C482        C483   1.404       .  A
C482        F487   1.358       .  S
C483        C484   1.411       .  A
C484        F485   1.357       .  S
C489        C490   1.401       .  A
C489        C494   1.385       .  A
C489        F496   1.358       .  S
C490        C491   1.411       .  A
C491        C492   1.410       .  A
C491        F498   1.357       .  S
C492        C493   1.408       .  A
C492        F497   1.357       .  S
C493        C494   1.410       .  A
C494        F495   1.357       .  S
C499        C500   1.404       .  A
C499        C504   1.404       .  A
C499        F506   1.357       .  S
C500        C501   1.406       .  A
C501        C502   1.382       .  A
C501        F508   1.356       .  S
C502        C503   1.403       .  A
C502        F507   1.358       .  S
C503        C504   1.406       .  A
C504        F505   1.356       .  S
C509        C510   1.404       .  A
C509        C514   1.389       .  A
C509        F516   1.358   1_545  S
C510        C511   1.417       .  A
C511        C512   1.409       .  A
C511        F518   1.356       .  S
C512        C513   1.402       .  A
C512        F517   1.357       .  S
C513        C514   1.408       .  A
C514        F515   1.356       .  S
C519        C520   1.421       .  A
C519        C524   1.414       .  A
C519        F526   1.356       .  S
C520        C521   1.419       .  A
C521        C522   1.385       .  A
C521        F528   1.354       .  S
C522        C523   1.393       .  A
C522        F527   1.353       .  S
C523        C524   1.405       .  A
C524        F525   1.357       .  S
C529        C530   1.397       .  A
C529        C534   1.384       .  A
C529        F536   1.360       .  S
C530        C531   1.410       .  A
C531        C532   1.415       .  A
C531        F538   1.357       .  S
C532        C533   1.413       .  A
C532        F537   1.355       .  S
C533        C534   1.423       .  A
C534        F535   1.359   1_545  S
C539        C540   1.398       .  A
C539        C544   1.398       .  A
C539        F546   1.356       .  S
C540        C541   1.397       .  A
C541        C542   1.400       .  A
C541        F548   1.354       .  S
C542        C543   1.420       .  A
C542        F547   1.355       .  S
C543        C544   1.415       .  A
C544        F545   1.356       .  S
C549        C550   1.421       .  A
C549        C554   1.411       .  A
C549        F556   1.356       .  S
C550        C551   1.418       .  A
C551        C552   1.385       .  A
C551        F558   1.355       .  S
C552        C553   1.396       .  A
C552        F557   1.357       .  S
C553        C554   1.402       .  A
C554        F555   1.357       .  S
C559        C560   1.417       .  A
C559        C564   1.381       .  A
C559        F566   1.358       .  S
C560        C561   1.418       .  A
C561        C562   1.411       .  A
C561        F568   1.355       .  S
C562        C563   1.406       .  A
C562        F567   1.357       .  S
C563        C564   1.393       .  A
C564        F565   1.356       .  S
C569        C570   1.422       .  A
C569        C574   1.397       .  A
C569        F576   1.354       .  S
C570        C571   1.417       .  A
C571        C572   1.401       .  A
C571        F578   1.355       .  S
C572        C573   1.399       .  A
C572        F577   1.355       .  S
C573        C574   1.395       .  A
C574        F575   1.353       .  S
C579        C580   1.401       .  A
C579        C584   1.385       .  A
C579        F586   1.358       .  S
C580        C581   1.416       .  A
C581        C582   1.409       .  A
C581        F588   1.356       .  S
C582        C583   1.402       .  A
C582        F587   1.357       .  S
C583        C584   1.410       .  A
C584        F585   1.358       .  S
C589        C591   1.534       .  S
C589        C593   1.544       .  S
C589        C592   1.546       .  S
C589       C1148   1.536       .  S
C590        C594   1.535       .  S
C590        C596   1.535       .  S
C590        C595   1.553       .  S
C590       C1138   1.537       .  S
C591        C599   1.389       .  A
C591        C594   1.390       .  A
C592        C603   1.376       .  A
C592        C595   1.433       .  A
C593        C607   1.385       .  A
C593        C596   1.373       .  A
C594        C597   1.390       .  A
C595        C601   1.386       .  A
C596        C604   1.373       .  A
C597        N598   1.353       .  A
C597        H610   1.080       .  S
N598        C599   1.353       .  A
N598       C1168   1.452       .  S
C599        H600   1.079       .  S
C601        N602   1.352       .  A
C601        H611   1.082       .  S
N602        C603   1.346       .  A
N602        N648   1.401       .  S
C603        H609   1.082       .  S
C604        N605   1.362       .  A
C604        H606   1.076       .  S
N605        C607   1.366       .  A
N605       C1158   1.460       .  S
C607        H608   1.077       .  S
C612       C1790   1.530   1_545  S
C612        C616   1.531       .  S
C612        C615   1.563       .  S
C612       C1121   1.541       .  S
C613        C617   1.544   1_455  S
C613       C1795   1.532       .  S
C613        C618   1.544       .  S
C613       C1108   1.534       .  S
C614       C1788   1.527       .  S
C614        C622   1.374       .  A
C614        C617   1.371       .  A
C615        C626   1.391       .  A
C615       C1794   1.440   1_645  A
C616        C630   1.387       .  A
C616        C619   1.386   1_645  A
C617        C620   1.381       .  A
C618       C1791   1.440   1_455  A
C618        C624   1.375       .  A
C619       C1789   1.530       .  S
C619        C627   1.386       .  A
C620        N621   1.363       .  A
C620        H633   1.079       .  S
N621        C622   1.362       .  A
N621       C1131   1.454       .  S
C622        H623   1.079       .  S
C624       N1801   1.345   1_455  A
C624        H634   1.082       .  S
N625       C1800   1.346   1_655  A
N625        C626   1.354   1_565  A
N625        N671   1.404       .  S
C626        H632   1.082       .  S
C627        N628   1.353   1_565  A
C627        H629   1.082       .  S
N628        C630   1.350   1_455  A
N628       C1098   1.446       .  S
C630        H631   1.080       .  S
C635        C637   1.544       .  S
C635        C639   1.557       .  S
C635       C1071   1.542       .  S
C636        C640   1.527       .  S
C636        C642   1.538       .  S
C636       C1061   1.549       .  S
C637        C645   1.396       .  A
C637        C640   1.382       .  A
C638        C649   1.371       .  A
C638        C641   1.426       .  A
C639        C653   1.386       .  A
C639        C642   1.393       .  A
C640        C643   1.373       .  A
C641        C647   1.390       .  A
C642        C650   1.374       .  A
C643        N644   1.345       .  A
C643        H656   1.083       .  S
N644        C645   1.355       .  A
N644       C1078   1.438       .  S
C645        H646   1.078       .  S
C647        N648   1.355       .  A
C647        H657   1.081       .  S
N648        C649   1.345       .  A
C649        H655   1.082       .  S
C650        N651   1.355       .  A
C650        H652   1.082       .  S
N651        C653   1.362       .  A
N651       C1091   1.449       .  S
C653        H654   1.073       .  S
C658       C1836   1.540       .  S
C658        C662   1.530       .  S
C658       C1041   1.556       .  S
C659        C663   1.554   1_455  S
C659       C1841   1.548       .  S
C659       C1018   1.545       .  S
C660       C1834   1.533   1_545  S
C660        C668   1.373       .  A
C660        C663   1.388       .  A
C661        C672   1.394       .  A
C661       C1840   1.428   1_655  A
C662        C676   1.374   1_655  A
C662        C665   1.389   1_655  A
C663        C666   1.386       .  A
C664       C1837   1.422   1_445  A
C664        C670   1.373       .  A
C665       C1835   1.542       .  S
C665        C673   1.395       .  A
C666        N667   1.361       .  A
C666        H679   1.074       .  S
N667        C668   1.356       .  A
N667       C1051   1.448       .  S
C668        H669   1.081       .  S
C670        N671   1.347   1_445  A
C670        H680   1.082       .  S
N671       C1848   1.356       .  A
C672       N1847   1.356       .  A
C672        H678   1.081       .  S
C673        N674   1.352       .  A
C673        H675   1.078       .  S
N674        C676   1.343       .  A
N674       C1031   1.435       .  S
C676        H677   1.082   1_455  S
Fe681       O697   2.043       .  S
Fe681       O687   2.078       .  S
Fe681       O694   2.071       .  S
Fe681       O686   2.041       .  S
Fe681       O692   1.951       .  S
Fe682       O685   2.054       .  S
Fe682       O689   2.167       .  S
Fe682       O693   2.081       .  S
Fe682       O698   2.144       .  S
Fe682       O692   1.980       .  S
Fe683       O701   2.103       .  S
Fe683       O688   2.027       .  S
Fe683       O695   2.054       .  S
Fe683       O684   2.126       .  S
Fe683       O692   1.974       .  S
O684        C691   1.280       .  A
O685        C699   1.266       .  A
O686        C691   1.267       .  A
O687        C690   1.269       .  A
O688        C700   1.264       .  A
O689        C702   1.293       .  A
C690        O695   1.261       .  A
C690       C1161   1.468       .  S
C691        C998   1.485       .  S
O693        C696   1.264       .  A
O694        C696   1.269       .  A
C696       C1058   1.496       .  S
O697        C702   1.269       .  A
O698        C700   1.287       .  A
C699        O701   1.276       .  A
C699       C1008   1.492       .  S
C700        C988   1.487       .  S
C702        C981   1.506       .  S
Fe703       O719   2.029       .  S
Fe703       O709   2.069       .  S
Fe703       O716   2.041       .  S
Fe703       O708   2.040       .  S
Fe703       O714   1.935       .  S
Fe704       O707   2.066       .  S
Fe704       O711   2.139       .  S
Fe704       O715   2.086       .  S
Fe704       O720   2.115       .  S
Fe704       O714   1.963       .  S
Fe705       O723   2.100       .  S
Fe705       O710   2.043       .  S
Fe705       O717   2.069       .  S
Fe705       O706   2.129       .  S
Fe705       O714   1.956       .  S
O706        C713   1.279       .  A
O707        C721   1.268       .  A
O708        C713   1.262       .  A
O709        C712   1.267       .  A
O710        C722   1.273       .  A
O711        C724   1.289       .  A
C712        O717   1.267       .  A
C712       C1088   1.466       .  S
C713       C1001   1.479       .  S
O715        C718   1.264       .  A
O716        C718   1.262       .  A
C718       C1141   1.482       .  S
O719        C724   1.269       .  A
O720        C722   1.283       .  A
C721        O723   1.274       .  A
C721       C1011   1.494       .  S
C722        C971   1.473       .  S
C724        C961   1.479       .  S
Fe725       O741   2.129       .  S
Fe725       O731   2.007       .  S
Fe725       O738   2.060       .  S
Fe725       O730   2.069       .  S
Fe725       O736   1.919       .  S
Fe726       O729   2.036       .  S
Fe726       O733   2.110       .  S
Fe726       O737   2.069       .  S
Fe726       O742   2.103       .  S
Fe726       O736   1.938       .  S
Fe727       O745   2.147       .  S
Fe727       O732   2.098       .  S
Fe727       O739   2.110       .  S
Fe727       O728   2.118       .  S
Fe727       O736   1.939       .  S
O728        C735   1.280       .  A
O729        C743   1.253       .  A
O730        C735   1.272       .  A
O731        C734   1.261       .  A
O732        C744   1.289       .  A
O733        C746   1.291       .  A
C734        O739   1.282       .  A
C734       C1081   1.473       .  S
C735        C938   1.501       .  S
O737        C740   1.256       .  A
O738        C740   1.251       .  A
C740       C1151   1.475       .  S
O741        C746   1.292       .  A
O742        C744   1.294       .  A
C743        O745   1.279       .  A
C743        C951   1.520       .  S
C744        C928   1.482       .  S
C746        C978   1.507       .  S
Fe747       O763   2.083       .  S
Fe747       O753   2.027       .  S
Fe747       O760   2.039       .  S
Fe747       O752   2.051       .  S
Fe747       O758   1.935       .  S
Fe748       O751   2.012       .  S
Fe748       O755   2.102       .  S
Fe748       O759   2.067       .  S
Fe748       O764   2.099       .  S
Fe748       O758   1.962       .  S
Fe749       O767   2.140       .  S
Fe749       O754   2.085       .  S
Fe749       O761   2.110       .  S
Fe749       O750   2.128       .  S
Fe749       O758   1.966       .  S
O750        C757   1.281       .  A
O751        C765   1.251       .  A
O752        C757   1.267       .  A
O753        C756   1.262       .  A
O754        C766   1.284       .  A
O755        C768   1.284       .  A
C756        O761   1.279       .  A
C756       C1171   1.482       .  S
C757        C941   1.499       .  S
O759        C762   1.258       .  A
O760        C762   1.254       .  A
C762       C1068   1.478       .  S
O763        C768   1.282       .  A
O764        C766   1.288       .  A
C765        O767   1.278       .  A
C765        C948   1.513       .  S
C766        C918   1.477       .  S
C768        C958   1.494       .  S
Fe769       O785   2.116       .  S
Fe769       O775   2.021       .  S
Fe769       O782   2.064       .  S
Fe769       O774   2.059       .  S
Fe769       O780   1.920       .  S
Fe770       O773   2.049       .  S
Fe770       O777   2.105       .  S
Fe770       O781   2.069       .  S
Fe770       O786   2.091       .  S
Fe770       O780   1.941       .  S
Fe771       O789   2.137       .  S
Fe771       O776   2.106       .  S
Fe771       O783   2.095       .  S
Fe771       O772   2.105       .  S
Fe771       O780   1.935       .  S
O772        C779   1.279       .  A
O773        C787   1.254       .  A
O774        C779   1.271       .  A
O775        C778   1.264       .  A
O776        C788   1.289       .  A
O777        C790   1.289       .  A
C778        O783   1.276       .  A
C778       C1028   1.473       .  S
C779        C908   1.487       .  S
O781        C784   1.258       .  A
O782        C784   1.253       .  A
C784       C1111   1.473       .  S
O785        C790   1.289       .  A
O786        C788   1.290       .  A
C787        O789   1.275       .  A
C787        C898   1.517       .  S
C788        C931   1.482       .  S
C790        C888   1.500       .  S
Fe791       O807   2.057       .  S
Fe791       O797   2.017       .  S
Fe791       O804   2.023       .  S
Fe791       O796   2.042       .  S
Fe791       O802   1.939       .  S
Fe792       O795   2.040       .  S
Fe792       O799   2.117       .  S
Fe792       O803   2.081       .  S
Fe792       O808   2.105       .  S
Fe792       O802   1.967       .  S
Fe793       O811   2.140       .  S
Fe793       O798   2.070       .  S
Fe793       O805   2.110       .  S
Fe793       O794   2.135       .  S
Fe793       O802   1.966       .  S
O794        C801   1.284       .  A
O795        C809   1.257       .  A
O796        C801   1.268       .  A
O797        C800   1.258       .  A
O798        C810   1.279       .  A
O799        C812   1.288       .  A
C800        O805   1.275       .  A
C800       C1101   1.481       .  S
C801        C911   1.497       .  S
O803        C806   1.260       .  A
O804        C806   1.252       .  A
C806       C1021   1.476       .  S
O807        C812   1.278       .  A
O808        C810   1.287       .  A
C809        O811   1.281       .  A
C809        C901   1.515       .  S
C810        C921   1.477       .  S
C812        C878   1.489       .  S
Fe813       O829   2.049       .  S
Fe813       O819   2.071       .  S
Fe813       O826   2.074       .  S
Fe813       O818   2.042       .  S
Fe813       O824   1.966       .  S
Fe814       O817   2.066       .  S
Fe814       O821   2.147       .  S
Fe814       O825   2.089       .  S
Fe814       O830   2.129       .  S
Fe814       O824   1.991       .  S
Fe815       O833   2.103       .  S
Fe815       O820   2.044       .  S
Fe815       O827   2.067       .  S
Fe815       O816   2.105       .  S
Fe815       O824   1.994       .  S
O816        C823   1.275       .  A
O817        C831   1.269       .  A
O818        C823   1.265       .  A
O819        C822   1.270       .  A
O820        C832   1.266       .  A
O821        C834   1.286       .  A
C822        O827   1.266       .  A
C822       C1128   1.472       .  S
C823        C868   1.476       .  S
O825        C828   1.267       .  A
O826        C828   1.270       .  A
C828       C1038   1.506       .  S
O829        C834   1.267       .  A
O830        C832   1.283       .  A
C831        O833   1.276       .  A
C831        C858   1.510       .  S
C832        C991   1.489       .  S
C834        C891   1.500       .  S
Fe835       O851   2.027       .  S
Fe835       O841   2.059       .  S
Fe835       O848   2.060       .  S
Fe835       O840   2.030       .  S
Fe835       O846   1.938       .  S
Fe836       O839   2.062       .  S
Fe836       O843   2.144       .  S
Fe836       O847   2.088       .  S
Fe836       O852   2.118       .  S
Fe836       O846   1.962       .  S
Fe837       O855   2.107       .  S
Fe837       O842   2.031       .  S
Fe837       O849   2.061       .  S
Fe837       O838   2.137       .  S
Fe837       O846   1.958       .  S
O838        C845   1.283       .  A
O839        C853   1.268       .  A
O840        C845   1.267       .  A
O841        C844   1.264       .  A
O842        C854   1.267       .  A
O843        C856   1.289       .  A
C844        O849   1.261       .  A
C844       C1048   1.462       .  S
C845        C871   1.484       .  S
O847        C850   1.266       .  A
O848        C850   1.265       .  A
C850       C1118   1.488       .  S
O851        C856   1.267       .  A
O852        C854   1.282       .  A
C853        O855   1.277       .  A
C853        C861   1.485       .  S
C854        C968   1.475       .  S
C856        C881   1.479       .  S
C857        C858   1.415       .  A
C857        C862   1.410       .  A
C857        F864   1.357       .  S
C858        C859   1.419       .  A
C859        C860   1.404       .  A
C859        F866   1.358       .  S
C860        C861   1.400       .  A
C860        F865   1.358       .  S
C861        C862   1.407       .  A
C862        F863   1.358       .  S
C867        C868   1.404       .  A
C867       C2048   1.403       .  A
C867        F874   1.358       .  S
C868        C869   1.407       .  A
C869       C2046   1.403       .  A
C869        F876   1.357       .  S
C870       C2045   1.408   1_545  A
C870        C871   1.407       .  A
C870        F875   1.357       .  S
C871        C872   1.408       .  A
C872       C2043   1.398   1_545  A
C872        F873   1.358       .  S
C877        C878   1.411       .  A
C877        C882   1.398   1_455  A
C877        F884   1.354       .  S
C878        C879   1.402   1_455  A
C879        C880   1.411       .  A
C879        F886   1.357   1_655  S
C880        C881   1.414       .  A
C880        F885   1.357       .  S
C881        C882   1.399       .  A
C882        F883   1.359       .  S
C887        C888   1.412       .  A
C887        C892   1.414   1_455  A
C887        F894   1.356       .  S
C888        C889   1.404       .  A
C889        C890   1.410   1_455  A
C889        F896   1.357       .  S
C890        C891   1.409       .  A
C890        F895   1.351       .  S
C891        C892   1.406       .  A
C892        F893   1.357       .  S
C897        C898   1.407       .  A
C897        C902   1.414       .  A
C897        F904   1.358       .  S
C898        C899   1.423       .  A
C899        C900   1.409       .  A
C899        F906   1.358       .  S
C900        C901   1.403       .  A
C900        F905   1.357       .  S
C901        C902   1.424       .  A
C902        F903   1.358       .  S
C907        C908   1.407       .  A
C907       C2088   1.400       .  A
C907        F914   1.358       .  S
C908        C909   1.409       .  A
C909       C2086   1.407       .  A
C909        F916   1.358       .  S
C910       C2085   1.407   1_545  A
C910        C911   1.410       .  A
C910        F915   1.358       .  S
C911        C912   1.413       .  A
C912       C2083   1.403   1_545  A
C912        F913   1.358       .  S
C917        C918   1.407       .  A
C917        C922   1.403       .  A
C917        F924   1.358       .  S
C918        C919   1.405       .  A
C919        C920   1.404       .  A
C919        F926   1.358       .  S
C920        C921   1.409       .  A
C920        F925   1.359       .  S
C921        C922   1.403       .  A
C922        F923   1.357       .  S
C927        C928   1.405       .  A
C927        C932   1.408       .  A
C927        F934   1.357       .  S
C928        C929   1.409       .  A
C929        C930   1.403       .  A
C929        F936   1.357       .  S
C930        C931   1.403       .  A
C930        F935   1.358       .  S
C931        C932   1.410       .  A
C932        F933   1.358       .  S
C937        C938   1.410       .  A
C937        C942   1.407       .  A
C937        F944   1.357       .  S
C938        C939   1.411       .  A
C939        C940   1.409       .  A
C939        F946   1.357       .  S
C940        C941   1.409       .  A
C940        F945   1.358       .  S
C941        C942   1.411       .  A
C942        F943   1.358       .  S
C947        C948   1.405       .  A
C947       C2128   1.410       .  A
C947        F954   1.357       .  S
C948        C949   1.427       .  A
C949       C2126   1.403   1_545  A
C949        F956   1.358       .  S
C950       C2125   1.412       .  A
C950        C951   1.406       .  A
C950        F955   1.357       .  S
C951        C952   1.428       .  A
C952       C2123   1.410       .  A
C952        F953   1.358       .  S
C957        C958   1.409       .  A
C957        C962   1.415       .  A
C957        F964   1.357       .  S
C958        C959   1.410       .  A
C959        C960   1.394       .  A
C959        F966   1.355       .  S
C960        C961   1.400       .  A
C960        F965   1.359       .  S
C961        C962   1.412       .  A
C962        F963   1.357       .  S
C967        C968   1.404       .  A
C967        C972   1.403       .  A
C967        F974   1.358       .  S
C968        C969   1.410       .  A
C969        C970   1.401       .  A
C969        F976   1.358       .  S
C970        C971   1.401       .  A
C970        F975   1.358       .  S
C971        C972   1.409       .  A
C972        F973   1.358       .  S
C977        C978   1.406       .  A
C977        C982   1.409       .  A
C977        F984   1.355       .  S
C978        C979   1.415       .  A
C979        C980   1.417       .  A
C979        F986   1.357       .  S
C980        C981   1.407       .  A
C980        F985   1.357       .  S
C981        C982   1.414       .  A
C982        F983   1.356       .  S
C987        C988   1.413       .  A
C987        C992   1.409       .  A
C987        F994   1.358       .  S
C988        C989   1.406       .  A
C989        C990   1.408       .  A
C989        F996   1.358       .  S
C990        C991   1.410       .  A
C990        F995   1.357       .  S
C991        C992   1.405       .  A
C992        F993   1.358       .  S
C997        C998   1.406       .  A
C997       C1002   1.405       .  A
C997       F1004   1.355       .  S
C998        C999   1.409       .  A
C999       C1000   1.402       .  A
C999       F1006   1.358       .  S
C1000      C1001   1.404       .  A
C1000      F1005   1.358       .  S
C1001      C1002   1.408       .  A
C1002      F1003   1.358       .  S
C1007      C1008   1.413       .  A
C1007      C2188   1.403       .  A
C1007      F1014   1.358       .  S
C1008      C1009   1.407       .  A
C1009      C2186   1.405       .  A
C1009      F1016   1.357       .  S
C1010      C2185   1.405   1_545  A
C1010      C1011   1.411       .  A
C1010      F1015   1.357       .  S
C1011      C1012   1.407       .  A
C1012      C2183   1.408   1_545  A
C1012      F1013   1.358       .  S
C1017      C1018   1.409       .  A
C1017      C1022   1.403       .  A
C1017      F1024   1.356       .  S
C1018      C1019   1.404       .  A
C1019      C1020   1.401       .  A
C1019      F1026   1.358       .  S
C1020      C1021   1.409       .  A
C1020      F1025   1.358       .  S
C1021      C1022   1.404       .  A
C1022      F1023   1.357       .  S
C1027      C1028   1.408       .  A
C1027      C1032   1.383       .  A
C1027      F1034   1.357       .  S
C1028      C1029   1.408       .  A
C1029      C1030   1.408       .  A
C1029      F1036   1.357       .  S
C1030      C1031   1.411       .  A
C1030      F1035   1.357       .  S
C1031      C1032   1.400       .  A
C1032      F1033   1.358       .  S
C1037      C1038   1.400       .  A
C1037      C1042   1.391       .  A
C1037      F1044   1.359       .  S
C1038      C1039   1.415       .  A
C1039      C1040   1.422       .  A
C1039      F1046   1.357       .  S
C1040      C1041   1.418       .  A
C1040      F1045   1.356       .  S
C1041      C1042   1.426       .  A
C1042      F1043   1.355       .  S
C1047      C1048   1.397       .  A
C1047      C1052   1.389       .  A
C1047      F1054   1.353       .  S
C1048      C1049   1.399       .  A
C1049      C1050   1.402       .  A
C1049      F1056   1.357       .  S
C1050      C1051   1.415       .  A
C1050      F1055   1.357       .  S
C1051      C1052   1.413       .  A
C1052      F1053   1.355       .  S
C1057      C1058   1.413       .  A
C1057      C1062   1.420       .  A
C1057      F1064   1.357       .  S
C1058      C1059   1.397       .  A
C1059      C1060   1.387       .  A
C1059      F1066   1.359       .  S
C1060      C1061   1.423       .  A
C1060      F1065   1.355       .  S
C1061      C1062   1.420       .  A
C1062      F1063   1.356       .  S
C1067      C1068   1.407       .  A
C1067      C1072   1.402       .  A
C1067      F1074   1.358       .  S
C1068      C1069   1.408       .  A
C1069      C1070   1.400       .  A
C1069      F1076   1.358       .  S
C1070      C1071   1.407       .  A
C1070      F1075   1.358       .  S
C1071      C1072   1.407       .  A
C1072      F1073   1.355       .  S
C1077      C1078   1.400       .  A
C1077      C1082   1.387       .  A
C1077      F1084   1.359       .  S
C1078      C1079   1.411       .  A
C1079      C1080   1.408       .  A
C1079      F1086   1.356       .  S
C1080      C1081   1.405       .  A
C1080      F1085   1.357       .  S
C1081      C1082   1.411       .  A
C1082      F1083   1.358       .  S
C1087      C1088   1.402       .  A
C1087      C1092   1.404       .  A
C1087      F1094   1.358       .  S
C1088      C1089   1.398       .  A
C1089      C1090   1.389       .  A
C1089      F1096   1.355       .  S
C1090      C1091   1.413       .  A
C1090      F1095   1.355       .  S
C1091      C1092   1.415       .  A
C1092      F1093   1.358       .  S
C1097      C1098   1.401       .  A
C1097      C1102   1.388       .  A
C1097      F1104   1.358   1_545  S
C1098      C1099   1.417       .  A
C1099      C1100   1.411       .  A
C1099      F1106   1.356       .  S
C1100      C1101   1.404       .  A
C1100      F1105   1.357       .  S
C1101      C1102   1.410       .  A
C1102      F1103   1.356       .  S
C1107      C1108   1.418       .  A
C1107      C1112   1.411       .  A
C1107      F1114   1.356       .  S
C1108      C1109   1.420       .  A
C1109      C1110   1.382       .  A
C1109      F1116   1.355   1_455  S
C1110      C1111   1.394       .  A
C1110      F1115   1.358       .  S
C1111      C1112   1.405       .  A
C1112      F1113   1.357       .  S
C1117      C1118   1.399       .  A
C1117      C1122   1.385       .  A
C1117      F1124   1.359       .  S
C1118      C1119   1.411       .  A
C1119      C1120   1.418       .  A
C1119      F1126   1.357       .  S
C1120      C1121   1.415       .  A
C1120      F1125   1.355       .  S
C1121      C1122   1.421       .  A
C1122      F1123   1.359   1_545  S
C1127      C1128   1.402       .  A
C1127      C1132   1.403       .  A
C1127      F1134   1.357       .  S
C1128      C1129   1.395       .  A
C1129      C1130   1.393       .  A
C1129      F1136   1.350       .  S
C1130      C1131   1.415       .  A
C1130      F1135   1.354       .  S
C1131      C1132   1.415       .  A
C1132      F1133   1.357       .  S
C1137      C1138   1.418       .  A
C1137      C1142   1.416       .  A
C1137      F1144   1.356       .  S
C1138      C1139   1.419       .  A
C1139      C1140   1.381       .  A
C1139      F1146   1.357       .  S
C1140      C1141   1.397       .  A
C1140      F1145   1.360       .  S
C1141      C1142   1.408       .  A
C1142      F1143   1.357       .  S
C1147      C1148   1.418       .  A
C1147      C1152   1.387       .  A
C1147      F1154   1.355       .  S
C1148      C1149   1.420       .  A
C1149      C1150   1.409       .  A
C1149      F1156   1.356       .  S
C1150      C1151   1.402       .  A
C1150      F1155   1.357       .  S
C1151      C1152   1.395       .  A
C1152      F1153   1.353       .  S
C1157      C1158   1.418       .  A
C1157      C1162   1.401       .  A
C1157      F1164   1.355       .  S
C1158      C1159   1.417       .  A
C1159      C1160   1.397       .  A
C1159      F1166   1.356       .  S
C1160      C1161   1.398       .  A
C1160      F1165   1.355       .  S
C1161      C1162   1.398       .  A
C1162      F1163   1.356       .  S
C1167      C1168   1.406       .  A
C1167      C1172   1.392       .  A
C1167      F1174   1.358       .  S
C1168      C1169   1.418       .  A
C1169      C1170   1.410       .  A
C1169      F1176   1.356       .  S
C1170      C1171   1.402       .  A
C1170      F1175   1.357       .  S
C1171      C1172   1.410       .  A
C1172      F1173   1.356       .  S
C1177      C1179   1.532       .  S
C1177      C1181   1.543       .  S
C1177      C1180   1.543       .  S
C1177      C1736   1.545       .  S
C1178      C1182   1.533       .  S
C1178      C1184   1.532       .  S
C1178      C1183   1.556       .  S
C1178      C1726   1.536       .  S
C1179      C1187   1.384       .  A
C1179      C1182   1.391       .  A
C1180      C1191   1.372       .  A
C1180      C1183   1.436       .  A
C1181      C1195   1.378       .  A
C1181      C1184   1.376       .  A
C1182      C1185   1.388       .  A
C1183      C1189   1.391       .  A
C1184      C1192   1.374       .  A
C1185      N1186   1.351       .  A
C1185      H1198   1.081       .  S
N1186      C1187   1.352       .  A
N1186      C1756   1.447       .  S
C1187      H1188   1.079       .  S
C1189      N1190   1.352       .  A
C1189      H1199   1.082       .  S
N1190      C1191   1.343       .  A
N1190      N1236   1.401       .  S
C1191      H1197   1.082       .  S
C1192      N1193   1.363       .  A
C1192      H1194   1.078       .  S
N1193      C1195   1.364       .  A
N1193      C1746   1.457       .  S
C1195      H1196   1.077       .  S
C1200      C1204   1.530       .  S
C1200      C1203   1.556       .  S
C1200      C1709   1.540       .  S
C1201      C1205   1.544   1_455  S
C1201      C1206   1.549       .  S
C1201      C1696   1.543       .  S
C1202      C1210   1.369       .  A
C1202      C1205   1.371       .  A
C1203      C1214   1.388       .  A
C1204      C1218   1.384   1_655  A
C1204      C1207   1.390   1_655  A
C1205      C1208   1.382       .  A
C1206      C1212   1.377       .  A
C1207      C1215   1.387       .  A
C1208      N1209   1.365       .  A
C1208      H1221   1.078       .  S
N1209      C1210   1.360       .  A
N1209      C1719   1.455       .  S
C1210      H1211   1.078       .  S
C1212      H1222   1.082       .  S
N1213      C1214   1.351       .  A
N1213      N1259   1.402       .  S
C1214      H1220   1.083       .  S
C1215      N1216   1.352       .  A
C1215      H1217   1.081       .  S
N1216      C1218   1.352       .  A
N1216      C1686   1.447       .  S
C1218      H1219   1.080   1_455  S
C1223      C1225   1.547       .  S
C1223      C1227   1.557       .  S
C1223      C1814   1.538       .  S
C1223      C1659   1.544       .  S
C1224      C1228   1.530       .  S
C1224      C1230   1.537       .  S
C1224      C1817   1.554       .  S
C1224      C1649   1.548       .  S
C1225      C1233   1.397       .  A
C1225      C1228   1.386       .  A
C1226      C1811   1.540       .  S
C1226      C1237   1.369   1_556  A
C1226      C1229   1.428       .  A
C1227      C1241   1.387       .  A
C1227      C1230   1.390       .  A
C1228      C1231   1.375       .  A
C1229      C1812   1.551       .  S
C1229      C1235   1.391   1_556  A
C1230      C1238   1.377       .  A
C1231      N1232   1.344       .  A
C1231      H1244   1.081       .  S
N1232      C1233   1.356       .  A
N1232      C1666   1.439       .  S
C1233      H1234   1.079       .  S
C1235      N1236   1.356       .  A
C1235      H1245   1.082       .  S
N1236      C1237   1.344       .  A
C1237      H1243   1.082       .  S
C1238      N1239   1.356       .  A
C1238      H1240   1.082       .  S
N1239      C1241   1.361       .  A
N1239      C1679   1.449       .  S
C1241      H1242   1.075       .  S
C1246      C1250   1.530       .  S
C1246      C1837   1.548       .  S
C1246      C1629   1.541       .  S
C1247      C1251   1.558   1_455  S
C1247      C1840   1.541       .  S
C1247      C1606   1.542       .  S
C1248      C1256   1.368       .  A
C1248      C1251   1.391       .  A
C1249      C1834   1.560       .  S
C1249      C1260   1.395   1_556  A
C1250      C1264   1.377   1_655  A
C1250      C1253   1.385   1_665  A
C1251      C1254   1.388       .  A
C1252      C1835   1.537       .  S
C1252      C1258   1.367   1_556  A
C1253      C1261   1.398   1_545  A
C1254      N1255   1.365       .  A
C1254      H1267   1.074       .  S
N1255      C1256   1.356       .  A
N1255      C1639   1.450       .  S
C1256      H1257   1.081       .  S
C1258      N1259   1.344   1_455  A
C1258      H1268   1.082       .  S
C1260      H1266   1.082       .  S
C1261      N1262   1.357       .  A
C1261      H1263   1.079       .  S
N1262      C1264   1.346       .  A
N1262      C1619   1.443       .  S
C1264      H1265   1.081   1_455  S
Fe1269     O1285   2.039       .  S
Fe1269     O1275   2.081       .  S
Fe1269     O1282   2.072       .  S
Fe1269     O1274   2.035       .  S
Fe1269     O1280   1.952       .  S
Fe1270     O1273   2.046       .  S
Fe1270     O1277   2.165       .  S
Fe1270     O1281   2.075       .  S
Fe1270     O1286   2.140       .  S
Fe1270     O1280   1.976       .  S
Fe1271     O1289   2.104       .  S
Fe1271     O1276   2.031       .  S
Fe1271     O1283   2.052       .  S
Fe1271     O1272   2.132       .  S
Fe1271     O1280   1.970       .  S
O1272      C1279   1.283       .  A
O1273      C1287   1.265       .  A
O1274      C1279   1.266       .  A
O1275      C1278   1.269       .  A
O1276      C1288   1.264       .  A
O1277      C1290   1.292       .  A
C1278      O1283   1.260       .  A
C1278      C1749   1.468       .  S
C1279      C1586   1.484       .  S
O1281      C1284   1.263       .  A
O1282      C1284   1.269       .  A
C1284      C1646   1.493       .  S
O1285      C1290   1.268       .  A
O1286      C1288   1.285       .  A
C1287      O1289   1.277       .  A
C1287      C1596   1.489       .  S
C1288      C1576   1.488       .  S
C1290      C1569   1.504       .  S
Fe1291     O1307   2.026       .  S
Fe1291     O1297   2.062       .  S
Fe1291     O1304   2.048       .  S
Fe1291     O1296   2.042       .  S
Fe1291     O1302   1.937       .  S
Fe1292     O1295   2.057       .  S
Fe1292     O1299   2.137       .  S
Fe1292     O1303   2.079       .  S
Fe1292     O1308   2.110       .  S
Fe1292     O1302   1.966       .  S
Fe1293     O1311   2.095       .  S
Fe1293     O1298   2.048       .  S
Fe1293     O1305   2.075       .  S
Fe1293     O1294   2.132       .  S
Fe1293     O1302   1.955       .  S
O1294      C1301   1.281       .  A
O1295      C1309   1.267       .  A
O1296      C1301   1.265       .  A
O1297      C1300   1.266       .  A
O1298      C1310   1.272       .  A
O1299      C1312   1.287       .  A
C1300      O1305   1.266       .  A
C1300      C1676   1.470       .  S
C1301      C1589   1.484       .  S
O1303      C1306   1.264       .  A
O1304      C1306   1.263       .  A
C1306      C1729   1.478       .  S
O1307      C1312   1.266       .  A
O1308      C1310   1.281       .  A
C1309      O1311   1.274       .  A
C1309      C1599   1.482       .  S
C1310      C1559   1.474       .  S
C1312      C1549   1.476       .  S
Fe1313     O1329   2.116       .  S
Fe1313     O1319   2.016       .  S
Fe1313     O1326   2.057       .  S
Fe1313     O1318   2.069       .  S
Fe1313     O1324   1.918       .  S
Fe1314     O1317   2.065       .  S
Fe1314     O1321   2.106       .  S
Fe1314     O1325   2.099       .  S
Fe1314     O1330   2.101       .  S
Fe1314     O1324   1.942       .  S
Fe1315     O1333   2.112       .  S
Fe1315     O1320   2.100       .  S
Fe1315     O1327   2.101       .  S
Fe1315     O1316   2.092       .  S
Fe1315     O1324   1.928       .  S
O1316      C1323   1.276       .  A
O1317      C1331   1.258       .  A
O1318      C1323   1.273       .  A
O1319      C1322   1.263       .  A
O1320      C1332   1.288       .  A
O1321      C1334   1.289       .  A
C1322      O1327   1.279       .  A
C1322      C1669   1.476       .  S
C1323      C1526   1.488       .  S
O1325      C1328   1.262       .  A
O1326      C1328   1.252       .  A
C1328      C1739   1.484       .  S
O1329      C1334   1.288       .  A
O1330      C1332   1.294       .  A
C1331      O1333   1.273       .  A
C1331      C1539   1.505       .  S
C1332      C1516   1.484       .  S
C1334      C1566   1.500       .  S
Fe1335     O1351   2.062       .  S
Fe1335     O1341   2.023       .  S
Fe1335     O1348   2.035       .  S
Fe1335     O1340   2.051       .  S
Fe1335     O1346   1.942       .  S
Fe1336     O1339   2.019       .  S
Fe1336     O1343   2.115       .  S
Fe1336     O1347   2.076       .  S
Fe1336     O1352   2.108       .  S
Fe1336     O1346   1.967       .  S
Fe1337     O1355   2.145       .  S
Fe1337     O1342   2.070       .  S
Fe1337     O1349   2.108       .  S
Fe1337     O1338   2.134       .  S
Fe1337     O1346   1.970       .  S
O1338      C1345   1.283       .  A
O1339      C1353   1.253       .  A
O1340      C1345   1.269       .  A
O1341      C1344   1.261       .  A
O1342      C1354   1.280       .  A
O1343      C1356   1.286       .  A
C1344      O1349   1.276       .  A
C1344      C1759   1.481       .  S
C1345      C1529   1.501       .  S
O1347      C1350   1.259       .  A
O1348      C1350   1.255       .  A
C1350      C1656   1.478       .  S
O1351      C1356   1.278       .  A
O1352      C1354   1.287       .  A
C1353      O1355   1.280       .  A
C1353      C1536   1.511       .  S
C1354      C1506   1.478       .  S
C1356      C1546   1.494       .  S
Fe1357     O1373   2.114       .  S
Fe1357     O1363   2.024       .  S
Fe1357     O1370   2.067       .  S
Fe1357     O1362   2.062       .  S
Fe1357     O1368   1.922       .  S
Fe1358     O1361   2.046       .  S
Fe1358     O1365   2.111       .  S
Fe1358     O1369   2.081       .  S
Fe1358     O1374   2.101       .  S
Fe1358     O1368   1.939       .  S
Fe1359     O1377   2.128       .  S
Fe1359     O1364   2.102       .  S
Fe1359     O1371   2.103       .  S
Fe1359     O1360   2.107       .  S
Fe1359     O1368   1.932       .  S
O1360      C1367   1.279       .  A
O1361      C1375   1.253       .  A
O1362      C1367   1.271       .  A
O1363      C1366   1.264       .  A
O1364      C1376   1.289       .  A
O1365      C1378   1.291       .  A
C1366      O1371   1.279       .  A
C1366      C1616   1.476       .  S
C1367      C1496   1.490       .  S
O1369      C1372   1.260       .  A
O1370      C1372   1.253       .  A
C1372      C1699   1.483       .  S
O1373      C1378   1.289       .  A
O1374      C1376   1.294       .  A
C1375      O1377   1.275       .  A
C1375      C1486   1.511       .  S
C1376      C1519   1.484       .  S
C1378      C1476   1.502       .  S
Fe1379     O1395   2.063       .  S
Fe1379     O1385   2.034       .  S
Fe1379     O1392   2.032       .  S
Fe1379     O1384   2.041       .  S
Fe1379     O1390   1.939       .  S
Fe1380     O1383   2.021       .  S
Fe1380     O1387   2.123       .  S
Fe1380     O1391   2.079       .  S
Fe1380     O1396   2.112       .  S
Fe1380     O1390   1.963       .  S
Fe1381     O1399   2.135       .  S
Fe1381     O1386   2.065       .  S
Fe1381     O1393   2.096       .  S
Fe1381     O1382   2.123       .  S
Fe1381     O1390   1.973       .  S
O1382      C1389   1.280       .  A
O1383      C1397   1.254       .  A
O1384      C1389   1.266       .  A
O1385      C1388   1.263       .  A
O1386      C1398   1.278       .  A
O1387      C1400   1.288       .  A
C1388      O1393   1.274       .  A
C1388      C1689   1.474       .  S
C1389      C1499   1.494       .  S
O1391      C1394   1.260       .  A
O1392      C1394   1.255       .  A
C1394      C1609   1.480       .  S
O1395      C1400   1.278       .  A
O1396      C1398   1.288       .  A
C1397      O1399   1.277       .  A
C1397      C1489   1.514       .  S
C1398      C1509   1.478       .  S
C1400      C1466   1.498       .  S
Fe1401     O1417   2.037       .  S
Fe1401     O1407   2.083       .  S
Fe1401     O1414   2.067       .  S
Fe1401     O1406   2.035       .  S
Fe1401     O1412   1.954       .  S
Fe1402     O1405   2.045       .  S
Fe1402     O1409   2.164       .  S
Fe1402     O1413   2.066       .  S
Fe1402     O1418   2.144       .  S
Fe1402     O1412   1.978       .  S
Fe1403     O1421   2.110       .  S
Fe1403     O1408   2.026       .  S
Fe1403     O1415   2.050       .  S
Fe1403     O1404   2.122       .  S
Fe1403     O1412   1.981       .  S
O1404      C1411   1.279       .  A
O1405      C1419   1.264       .  A
O1406      C1411   1.264       .  A
O1407      C1410   1.272       .  A
O1408      C1420   1.263       .  A
O1409      C1422   1.291       .  A
C1410      O1415   1.261       .  A
C1410      C1716   1.467       .  S
C1411      C1456   1.480       .  S
O1413      C1416   1.261       .  A
O1414      C1416   1.269       .  A
C1416      C1626   1.487       .  S
O1417      C1422   1.268       .  A
O1418      C1420   1.287       .  A
C1419      O1421   1.276       .  A
C1419      C1446   1.497       .  S
C1420      C1579   1.488       .  S
C1422      C1479   1.505       .  S
Fe1423     O1439   2.030       .  S
Fe1423     O1429   2.062       .  S
Fe1423     O1436   2.052       .  S
Fe1423     O1428   2.039       .  S
Fe1423     O1434   1.936       .  S
Fe1424     O1427   2.060       .  S
Fe1424     O1431   2.141       .  S
Fe1424     O1435   2.088       .  S
Fe1424     O1440   2.124       .  S
Fe1424     O1434   1.963       .  S
Fe1425     O1443   2.102       .  S
Fe1425     O1430   2.030       .  S
Fe1425     O1437   2.065       .  S
Fe1425     O1426   2.125       .  S
Fe1425     O1434   1.960       .  S
O1426      C1433   1.280       .  A
O1427      C1441   1.268       .  A
O1428      C1433   1.266       .  A
O1429      C1432   1.266       .  A
O1430      C1442   1.268       .  A
O1431      C1444   1.288       .  A
C1432      O1437   1.264       .  A
C1432      C1636   1.464       .  S
C1433      C1459   1.479       .  S
O1435      C1438   1.266       .  A
O1436      C1438   1.264       .  A
C1438      C1706   1.484       .  S
O1439      C1444   1.266       .  A
O1440      C1442   1.283       .  A
C1441      O1443   1.274       .  A
C1441      C1449   1.485       .  S
C1442      C1556   1.476       .  S
C1444      C1469   1.480       .  S
C1445      C1446   1.413       .  A
C1445      C1450   1.398       .  A
C1445      F1452   1.358       .  S
C1446      C1447   1.411       .  A
C1447      C1448   1.412       .  A
C1447      F1454   1.357       .  S
C1448      C1449   1.409       .  A
C1448      F1453   1.357       .  S
C1449      C1450   1.403       .  A
C1450      F1451   1.358       .  S
C1455      C1456   1.403       .  A
C1455      F1462   1.357       .  S
C1456      C1457   1.409       .  A
C1457      F1464   1.358       .  S
C1458      C1459   1.404       .  A
C1458      F1463   1.358       .  S
C1459      C1460   1.409       .  A
C1460      F1461   1.358       .  S
C1465      C1466   1.413       .  A
C1465      C1470   1.397   1_455  A
C1465      F1472   1.355       .  S
C1466      C1467   1.408       .  A
C1467      C1468   1.415   1_455  A
C1467      F1474   1.357       .  S
C1468      C1469   1.413       .  A
C1468      F1473   1.357       .  S
C1469      C1470   1.399       .  A
C1470      F1471   1.359       .  S
C1475      C1476   1.417       .  A
C1475      C1480   1.421   1_455  A
C1475      F1482   1.357       .  S
C1476      C1477   1.400       .  A
C1477      C1478   1.403   1_455  A
C1477      F1484   1.355       .  S
C1478      C1479   1.409       .  A
C1478      F1483   1.350       .  S
C1479      C1480   1.408       .  A
C1480      F1481   1.357       .  S
C1485      C1486   1.401       .  A
C1485      C1490   1.404       .  A
C1485      F1492   1.357       .  S
C1486      C1487   1.425       .  A
C1487      C1488   1.413       .  A
C1487      F1494   1.358       .  S
C1488      C1489   1.407       .  A
C1488      F1493   1.358       .  S
C1489      C1490   1.424       .  A
C1490      F1491   1.358       .  S
C1495      C1496   1.407       .  A
C1495      F1502   1.357       .  S
C1496      C1497   1.408       .  A
C1497      F1504   1.358       .  S
C1498      C1499   1.412       .  A
C1498      F1503   1.357       .  S
C1499      C1500   1.412       .  A
C1500      F1501   1.359       .  S
C1505      C1506   1.408       .  A
C1505      C1510   1.403       .  A
C1505      F1512   1.358       .  S
C1506      C1507   1.404       .  A
C1507      C1508   1.405       .  A
C1507      F1514   1.358       .  S
C1508      C1509   1.410       .  A
C1508      F1513   1.358       .  S
C1509      C1510   1.403       .  A
C1510      F1511   1.358       .  S
C1515      C1516   1.404       .  A
C1515      C1520   1.402       .  A
C1515      F1522   1.358       .  S
C1516      C1517   1.411       .  A
C1517      C1518   1.411       .  A
C1517      F1524   1.358       .  S
C1518      C1519   1.407       .  A
C1518      F1523   1.358       .  S
C1519      C1520   1.407       .  A
C1520      F1521   1.357       .  S
C1525      C1526   1.407       .  A
C1525      C1530   1.404       .  A
C1525      F1532   1.358       .  S
C1526      C1527   1.406       .  A
C1527      C1528   1.408       .  A
C1527      F1534   1.358       .  S
C1528      C1529   1.413       .  A
C1528      F1533   1.357       .  S
C1529      C1530   1.413       .  A
C1530      F1531   1.358       .  S
C1535      C1536   1.407       .  A
C1535      F1542   1.357       .  S
C1536      C1537   1.422       .  A
C1537      F1544   1.358       .  S
C1538      C1539   1.402       .  A
C1538      F1543   1.358       .  S
C1539      C1540   1.420       .  A
C1540      F1541   1.358       .  S
C1545      C1546   1.405       .  A
C1545      C1550   1.413       .  A
C1545      F1552   1.356       .  S
C1546      C1547   1.413       .  A
C1547      C1548   1.396       .  A
C1547      F1554   1.354       .  S
C1548      C1549   1.399       .  A
C1548      F1553   1.359       .  S
C1549      C1550   1.412       .  A
C1550      F1551   1.357       .  S
C1555      C1556   1.403       .  A
C1555      C1560   1.403       .  A
C1555      F1562   1.357       .  S
C1556      C1557   1.410       .  A
C1557      C1558   1.401       .  A
C1557      F1564   1.358       .  S
C1558      C1559   1.402       .  A
C1558      F1563   1.358       .  S
C1559      C1560   1.408       .  A
C1560      F1561   1.358       .  S
C1565      C1566   1.402       .  A
C1565      C1570   1.407       .  A
C1565      F1572   1.357       .  S
C1566      C1567   1.415       .  A
C1567      C1568   1.417       .  A
C1567      F1574   1.356       .  S
C1568      C1569   1.407       .  A
C1568      F1573   1.357       .  S
C1569      C1570   1.411       .  A
C1570      F1571   1.353       .  S
C1575      C1576   1.410       .  A
C1575      C1580   1.407       .  A
C1575      F1582   1.358       .  S
C1576      C1577   1.407       .  A
C1577      C1578   1.410       .  A
C1577      F1584   1.358       .  S
C1578      C1579   1.413       .  A
C1578      F1583   1.358       .  S
C1579      C1580   1.404       .  A
C1580      F1581   1.357       .  S
C1585      C1586   1.405       .  A
C1585      C1590   1.406       .  A
C1585      F1592   1.356       .  S
C1586      C1587   1.410       .  A
C1587      C1588   1.404       .  A
C1587      F1594   1.358       .  S
C1588      C1589   1.405       .  A
C1588      F1593   1.358       .  S
C1589      C1590   1.409       .  A
C1590      F1591   1.358       .  S
C1595      C1596   1.414       .  A
C1595      F1602   1.358       .  S
C1596      C1597   1.406       .  A
C1597      F1604   1.358       .  S
C1598      C1599   1.408       .  A
C1598      F1603   1.358       .  S
C1599      C1600   1.403       .  A
C1600      F1601   1.358       .  S
C1605      C1606   1.410       .  A
C1605      C1610   1.405       .  A
C1605      F1612   1.355       .  S
C1606      C1607   1.407       .  A
C1607      C1608   1.400       .  A
C1607      F1614   1.358       .  S
C1608      C1609   1.408       .  A
C1608      F1613   1.358       .  S
C1609      C1610   1.405       .  A
C1610      F1611   1.357       .  S
C1615      C1616   1.408       .  A
C1615      C1620   1.389       .  A
C1615      F1622   1.356       .  S
C1616      C1617   1.406       .  A
C1617      C1618   1.408       .  A
C1617      F1624   1.357       .  S
C1618      C1619   1.411       .  A
C1618      F1623   1.357       .  S
C1619      C1620   1.404       .  A
C1620      F1621   1.358       .  S
C1625      C1626   1.394       .  A
C1625      C1630   1.384       .  A
C1625      F1632   1.360       .  S
C1626      C1627   1.410       .  A
C1627      C1628   1.415       .  A
C1627      F1634   1.357       .  S
C1628      C1629   1.418       .  A
C1628      F1633   1.356       .  S
C1629      C1630   1.426       .  A
C1630      F1631   1.355   1_565  S
C1635      C1636   1.399       .  A
C1635      C1640   1.391       .  A
C1635      F1642   1.356       .  S
C1636      C1637   1.400       .  A
C1637      C1638   1.402       .  A
C1637      F1644   1.358       .  S
C1638      C1639   1.416       .  A
C1638      F1643   1.358       .  S
C1639      C1640   1.413       .  A
C1640      F1641   1.354       .  S
C1645      C1646   1.411       .  A
C1645      C1650   1.417       .  A
C1645      F1652   1.357       .  S
C1646      C1647   1.398       .  A
C1647      C1648   1.389       .  A
C1647      F1654   1.360       .  S
C1648      C1649   1.426       .  A
C1648      F1653   1.356       .  S
C1649      C1650   1.418       .  A
C1650      F1651   1.355       .  S
C1655      C1656   1.405       .  A
C1655      C1660   1.403       .  A
C1655      F1662   1.357       .  S
C1656      C1657   1.408       .  A
C1657      C1658   1.401       .  A
C1657      F1664   1.358       .  S
C1658      C1659   1.406       .  A
C1658      F1663   1.358       .  S
C1659      C1660   1.409       .  A
C1660      F1661   1.357       .  S
C1665      C1666   1.403       .  A
C1665      C1670   1.389       .  A
C1665      F1672   1.358       .  S
C1666      C1667   1.409       .  A
C1667      C1668   1.406       .  A
C1667      F1674   1.357       .  S
C1668      C1669   1.406       .  A
C1668      F1673   1.357       .  S
C1669      C1670   1.410       .  A
C1670      F1671   1.358       .  S
C1675      C1676   1.401       .  A
C1675      C1680   1.405       .  A
C1675      F1682   1.357       .  S
C1676      C1677   1.400       .  A
C1677      C1678   1.391       .  A
C1677      F1684   1.355       .  S
C1678      C1679   1.412       .  A
C1678      F1683   1.355       .  S
C1679      C1680   1.414       .  A
C1680      F1681   1.357       .  S
C1685      C1686   1.406       .  A
C1685      C1690   1.391       .  A
C1685      F1692   1.357       .  S
C1686      C1687   1.417       .  A
C1687      C1688   1.406       .  A
C1687      F1694   1.356       .  S
C1688      C1689   1.401       .  A
C1688      F1693   1.357       .  S
C1689      C1690   1.407       .  A
C1690      F1691   1.355       .  S
C1695      C1696   1.420       .  A
C1695      C1700   1.415       .  A
C1695      F1702   1.357       .  S
C1696      C1697   1.422       .  A
C1697      C1698   1.387       .  A
C1697      F1704   1.354   1_455  S
C1698      C1699   1.393       .  A
C1698      F1703   1.355       .  S
C1699      C1700   1.406       .  A
C1700      F1701   1.357       .  S
C1705      C1706   1.398       .  A
C1705      C1710   1.384       .  A
C1705      F1712   1.359       .  S
C1706      C1707   1.408       .  A
C1707      C1708   1.417       .  A
C1707      F1714   1.357       .  S
C1708      C1709   1.419       .  A
C1708      F1713   1.356       .  S
C1709      C1710   1.417       .  A
C1710      F1711   1.358       .  S
C1715      C1716   1.398       .  A
C1715      C1720   1.398       .  A
C1715      F1722   1.357       .  S
C1716      C1717   1.396       .  A
C1717      C1718   1.396       .  A
C1717      F1724   1.352       .  S
C1718      C1719   1.417       .  A
C1718      F1723   1.354       .  S
C1719      C1720   1.416       .  A
C1720      F1721   1.357       .  S
C1725      C1726   1.418       .  A
C1725      C1730   1.414       .  A
C1725      F1732   1.355       .  S
C1726      C1727   1.419       .  A
C1727      C1728   1.383       .  A
C1727      F1734   1.358       .  S
C1728      C1729   1.397       .  A
C1728      F1733   1.359       .  S
C1729      C1730   1.407       .  A
C1730      F1731   1.357       .  S
C1735      C1736   1.420       .  A
C1735      C1740   1.393       .  A
C1735      F1742   1.354       .  S
C1736      C1737   1.420       .  A
C1737      C1738   1.410       .  A
C1737      F1744   1.357       .  S
C1738      C1739   1.406       .  A
C1738      F1743   1.357       .  S
C1739      C1740   1.398       .  A
C1740      F1741   1.357       .  S
C1745      C1746   1.417       .  A
C1745      C1750   1.396       .  A
C1745      F1752   1.355       .  S
C1746      C1747   1.415       .  A
C1747      C1748   1.399       .  A
C1747      F1754   1.356       .  S
C1748      C1749   1.400       .  A
C1748      F1753   1.356       .  S
C1749      C1750   1.397       .  A
C1750      F1751   1.352       .  S
C1755      C1756   1.403       .  A
C1755      C1760   1.387       .  A
C1755      F1762   1.358       .  S
C1756      C1757   1.418       .  A
C1757      C1758   1.411       .  A
C1757      F1764   1.356       .  S
C1758      C1759   1.404       .  A
C1758      F1763   1.357       .  S
C1759      C1760   1.408       .  A
C1760      F1761   1.354       .  S
C1765      C1767   1.531       .  S
C1765      C1769   1.540       .  S
C1765      C1768   1.548       .  S
C1765      C2324   1.541       .  S
C1766      C1770   1.532       .  S
C1766      C1772   1.534       .  S
C1766      C1771   1.557       .  S
C1766      C2314   1.538       .  S
C1767      C1775   1.386       .  A
C1767      C1770   1.388       .  A
C1768      C1779   1.377       .  A
C1768      C1771   1.439       .  A
C1769      C1783   1.380       .  A
C1769      C1772   1.371       .  A
C1770      C1773   1.389       .  A
C1771      C1777   1.388       .  A
C1772      C1780   1.374       .  A
C1773      N1774   1.351       .  A
C1773      H1786   1.080       .  S
N1774      C1775   1.353       .  A
N1774      C2344   1.449       .  S
C1775      H1776   1.080       .  S
C1777      N1778   1.352       .  A
C1777      H1787   1.082       .  S
N1778      C1779   1.346       .  A
N1778      N1824   1.403       .  S
C1779      H1785   1.082       .  S
C1780      N1781   1.363       .  A
C1780      H1782   1.077       .  S
N1781      C1783   1.365       .  A
N1781      C2334   1.460       .  S
C1783      H1784   1.077       .  S
C1788      C1792   1.531       .  S
C1788      C1791   1.564       .  S
C1788      C2297   1.532       .  S
C1789      C1793   1.545   1_455  S
C1789      C1794   1.546       .  S
C1789      C2284   1.539       .  S
C1790      C1798   1.372       .  A
C1790      C1793   1.373       .  A
C1791      C1802   1.393       .  A
C1792      C1806   1.385       .  A
C1792      C1795   1.382   1_655  A
C1793      C1796   1.383       .  A
C1794      C1800   1.375       .  A
C1795      C1803   1.389       .  A
C1796      N1797   1.365       .  A
C1796      H1809   1.078       .  S
N1797      C1798   1.364       .  A
N1797      C2307   1.458       .  S
C1798      H1799   1.077       .  S
C1800      H1810   1.081       .  S
N1801      C1802   1.354       .  A
N1801      N1847   1.404       .  S
C1802      H1808   1.082       .  S
C1803      N1804   1.355       .  A
C1803      H1805   1.081       .  S
N1804      C1806   1.351   1_455  A
N1804      C2274   1.449       .  S
C1806      H1807   1.080       .  S
C1811      C1813   1.547       .  S
C1811      C1815   1.557       .  S
C1811      C2247   1.541       .  S
C1812      C1816   1.528       .  S
C1812      C1818   1.531       .  S
C1812      C2237   1.543       .  S
C1813      C1821   1.396       .  A
C1813      C1816   1.382       .  A
C1814      C1825   1.369       .  A
C1814      C1817   1.425       .  A
C1815      C1829   1.390       .  A
C1815      C1818   1.387       .  A
C1816      C1819   1.375       .  A
C1817      C1823   1.392       .  A
C1818      C1826   1.371       .  A
C1819      N1820   1.346       .  A
C1819      H1832   1.082       .  S
N1820      C1821   1.355       .  A
N1820      C2254   1.439       .  S
C1821      H1822   1.078       .  S
C1823      N1824   1.358       .  A
C1823      H1833   1.081       .  S
N1824      C1825   1.344       .  A
C1825      H1831   1.083       .  S
C1826      N1827   1.355       .  A
C1826      H1828   1.081       .  S
N1827      C1829   1.363       .  A
N1827      C2267   1.449       .  S
C1829      H1830   1.075       .  S
C1834      C1838   1.530       .  S
C1834      C2217   1.552       .  S
C1835      C1839   1.554   1_455  S
C1835      C2194   1.543       .  S
C1836      C1844   1.375       .  A
C1836      C1839   1.393       .  A
C1837      C1848   1.390       .  A
C1838      C1852   1.376       .  A
C1838      C1841   1.387   1_665  A
C1839      C1842   1.388       .  A
C1840      C1846   1.372       .  A
C1841      C1849   1.397   1_545  A
C1842      N1843   1.361       .  A
C1842      H1855   1.075       .  S
N1843      C1844   1.355       .  A
N1843      C2227   1.449       .  S
C1844      H1845   1.082       .  S
C1846      N1847   1.344   1_455  A
C1846      H1856   1.083       .  S
C1848      H1854   1.082       .  S
C1849      N1850   1.355       .  A
C1849      H1851   1.078       .  S
N1850      C1852   1.343   1_455  A
N1850      C2207   1.439       .  S
C1852      H1853   1.082       .  S
Fe1857     O1873   2.047       .  S
Fe1857     O1863   2.063       .  S
Fe1857     O1870   2.055       .  S
Fe1857     O1862   2.041       .  S
Fe1857     O1868   1.962       .  S
Fe1858     O1861   2.062       .  S
Fe1858     O1865   2.154       .  S
Fe1858     O1869   2.076       .  S
Fe1858     O1874   2.128       .  S
Fe1858     O1868   1.991       .  S
Fe1859     O1877   2.099       .  S
Fe1859     O1864   2.034       .  S
Fe1859     O1871   2.061       .  S
Fe1859     O1860   2.108       .  S
Fe1859     O1868   1.985       .  S
O1860      C1867   1.276       .  A
O1861      C1875   1.267       .  A
O1862      C1867   1.266       .  A
O1863      C1866   1.267       .  A
O1864      C1876   1.264       .  A
O1865      C1878   1.289       .  A
C1866      O1871   1.264       .  A
C1866      C2337   1.467       .  S
C1867      C2174   1.476       .  S
O1869      C1872   1.263       .  A
O1870      C1872   1.266       .  A
C1872      C2234   1.494       .  S
O1873      C1878   1.268       .  A
O1874      C1876   1.282       .  A
C1875      O1877   1.276       .  A
C1875      C2184   1.494       .  S
C1876      C2164   1.485       .  S
C1878      C2157   1.503       .  S
Fe1879     O1895   2.027       .  S
Fe1879     O1885   2.044       .  S
Fe1879     O1892   2.032       .  S
Fe1879     O1884   2.036       .  S
Fe1879     O1890   1.955       .  S
Fe1880     O1883   2.070       .  S
Fe1880     O1887   2.132       .  S
Fe1880     O1891   2.094       .  S
Fe1880     O1896   2.111       .  S
Fe1880     O1890   1.992       .  S
Fe1881     O1899   2.078       .  S
Fe1881     O1886   2.048       .  S
Fe1881     O1893   2.073       .  S
Fe1881     O1882   2.102       .  S
Fe1881     O1890   1.984       .  S
O1882      C1889   1.271       .  A
O1883      C1897   1.268       .  A
O1884      C1889   1.261       .  A
O1885      C1888   1.266       .  A
O1886      C1898   1.271       .  A
O1887      C1900   1.283       .  A
C1888      O1893   1.268       .  A
C1888      C2264   1.466       .  S
C1889      C2177   1.474       .  S
O1891      C1894   1.267       .  A
O1892      C1894   1.263       .  A
C1894      C2317   1.487       .  S
O1895      C1900   1.263       .  A
O1896      C1898   1.281       .  A
C1897      O1899   1.269       .  A
C1897      C2187   1.488       .  S
C1898      C2147   1.475       .  S
C1900      C2137   1.484       .  S
Fe1901     O1917   2.118       .  S
Fe1901     O1907   2.014       .  S
Fe1901     O1914   2.061       .  S
Fe1901     O1906   2.061       .  S
Fe1901     O1912   1.915       .  S
Fe1902     O1905   2.043       .  S
Fe1902     O1909   2.108       .  S
Fe1902     O1913   2.084       .  S
Fe1902     O1918   2.099       .  S
Fe1902     O1912   1.934       .  S
Fe1903     O1921   2.119       .  S
Fe1903     O1908   2.099       .  S
Fe1903     O1915   2.108       .  S
Fe1903     O1904   2.091       .  S
Fe1903     O1912   1.933       .  S
O1904      C1911   1.275       .  A
O1905      C1919   1.253       .  A
O1906      C1911   1.271       .  A
O1907      C1910   1.263       .  A
O1908      C1920   1.288       .  A
O1909      C1922   1.291       .  A
C1910      O1915   1.281       .  A
C1910      C2257   1.477       .  S
C1911      C2114   1.483       .  S
O1913      C1916   1.259       .  A
O1914      C1916   1.251       .  A
C1916      C2327   1.480       .  S
O1917      C1922   1.289       .  A
O1918      C1920   1.294       .  A
C1919      O1921   1.274       .  A
C1919      C2127   1.505       .  S
C1920      C2104   1.480       .  S
C1922      C2154   1.501       .  S
Fe1923     O1939   2.077       .  S
Fe1923     O1929   2.023       .  S
Fe1923     O1936   2.036       .  S
Fe1923     O1928   2.045       .  S
Fe1923     O1934   1.938       .  S
Fe1924     O1927   2.027       .  S
Fe1924     O1931   2.118       .  S
Fe1924     O1935   2.077       .  S
Fe1924     O1940   2.110       .  S
Fe1924     O1934   1.961       .  S
Fe1925     O1943   2.133       .  S
Fe1925     O1930   2.077       .  S
Fe1925     O1937   2.105       .  S
Fe1925     O1926   2.117       .  S
Fe1925     O1934   1.966       .  S
O1926      C1933   1.278       .  A
O1927      C1941   1.254       .  A
O1928      C1933   1.267       .  A
O1929      C1932   1.261       .  A
O1930      C1942   1.282       .  A
O1931      C1944   1.287       .  A
C1932      O1937   1.277       .  A
C1932      C2347   1.477       .  S
C1933      C2117   1.491       .  S
O1935      C1938   1.260       .  A
O1936      C1938   1.254       .  A
C1938      C2244   1.480       .  S
O1939      C1944   1.281       .  A
O1940      C1942   1.290       .  A
C1941      O1943   1.278       .  A
C1941      C2124   1.508       .  S
C1942      C2094   1.480       .  S
C1944      C2134   1.501       .  S
Fe1945     O1961   2.114       .  S
Fe1945     O1951   2.025       .  S
Fe1945     O1958   2.066       .  S
Fe1945     O1950   2.060       .  S
Fe1945     O1956   1.919       .  S
Fe1946     O1949   2.049       .  S
Fe1946     O1953   2.111       .  S
Fe1946     O1957   2.078       .  S
Fe1946     O1962   2.102       .  S
Fe1946     O1956   1.943       .  S
Fe1947     O1965   2.126       .  S
Fe1947     O1952   2.100       .  S
Fe1947     O1959   2.094       .  S
Fe1947     O1948   2.112       .  S
Fe1947     O1956   1.935       .  S
O1948      C1955   1.279       .  A
O1949      C1963   1.254       .  A
O1950      C1955   1.270       .  A
O1951      C1954   1.264       .  A
O1952      C1964   1.288       .  A
O1953      C1966   1.291       .  A
C1954      O1959   1.276       .  A
C1954      C2204   1.472       .  S
C1955      C2084   1.490       .  S
O1957      C1960   1.258       .  A
O1958      C1960   1.253       .  A
C1960      C2287   1.479       .  S
O1961      C1966   1.289       .  A
O1962      C1964   1.293       .  A
C1963      O1965   1.274       .  A
C1963      C2074   1.512       .  S
C1964      C2107   1.483       .  S
C1966      C2064   1.503       .  S
Fe1967     O1983   2.088       .  S
Fe1967     O1973   2.031       .  S
Fe1967     O1980   2.046       .  S
Fe1967     O1972   2.045       .  S
Fe1967     O1978   1.931       .  S
Fe1968     O1971   2.028       .  S
Fe1968     O1975   2.101       .  S
Fe1968     O1979   2.081       .  S
Fe1968     O1984   2.104       .  S
Fe1968     O1978   1.952       .  S
Fe1969     O1987   2.125       .  S
Fe1969     O1974   2.083       .  S
Fe1969     O1981   2.104       .  S
Fe1969     O1970   2.111       .  S
Fe1969     O1978   1.962       .  S
O1970      C1977   1.275       .  A
O1971      C1985   1.254       .  A
O1972      C1977   1.265       .  A
O1973      C1976   1.265       .  A
O1974      C1986   1.285       .  A
O1975      C1988   1.285       .  A
C1976      O1981   1.279       .  A
C1976      C2277   1.477       .  S
C1977      C2087   1.492       .  S
O1979      C1982   1.260       .  A
O1980      C1982   1.254       .  A
C1982      C2197   1.484       .  S
O1983      C1988   1.282       .  A
O1984      C1986   1.291       .  A
C1985      O1987   1.274       .  A
C1985      C2077   1.513       .  S
C1986      C2097   1.478       .  S
C1988      C2054   1.499       .  S
Fe1989     O2005   2.040       .  S
Fe1989     O1995   2.069       .  S
Fe1989     O2002   2.071       .  S
Fe1989     O1994   2.043       .  S
Fe1989     O2000   1.965       .  S
Fe1990     O1993   2.057       .  S
Fe1990     O1997   2.154       .  S
Fe1990     O2001   2.086       .  S
Fe1990     O2006   2.127       .  S
Fe1990     O2000   1.996       .  S
Fe1991     O2009   2.089       .  S
Fe1991     O1996   2.039       .  S
Fe1991     O2003   2.060       .  S
Fe1991     O1992   2.106       .  S
Fe1991     O2000   1.988       .  S
O1992      C1999   1.276       .  A
O1993      C2007   1.267       .  A
O1994      C1999   1.265       .  A
O1995      C1998   1.269       .  A
O1996      C2008   1.264       .  A
O1997      C2010   1.286       .  A
C1998      O2003   1.263       .  A
C1998      C2304   1.469       .  S
C1999      C2044   1.477       .  S
O2001      C2004   1.267       .  A
O2002      C2004   1.271       .  A
C2004      C2214   1.504       .  S
O2005      C2010   1.264       .  A
O2006      C2008   1.281       .  A
C2007      O2009   1.274       .  A
C2007      C2034   1.481       .  S
C2008      C2167   1.487       .  S
C2010      C2067   1.505       .  S
Fe2011     O2027   2.013       .  S
Fe2011     O2017   2.065       .  S
Fe2011     O2024   2.052       .  S
Fe2011     O2016   2.030       .  S
Fe2011     O2022   1.928       .  S
Fe2012     O2015   2.050       .  S
Fe2012     O2019   2.157       .  S
Fe2012     O2023   2.074       .  S
Fe2012     O2028   2.128       .  S
Fe2012     O2022   1.953       .  S
Fe2013     O2031   2.099       .  S
Fe2013     O2018   2.035       .  S
Fe2013     O2025   2.070       .  S
Fe2013     O2014   2.134       .  S
Fe2013     O2022   1.946       .  S
O2014      C2021   1.283       .  A
O2015      C2029   1.267       .  A
O2016      C2021   1.265       .  A
O2017      C2020   1.265       .  A
O2018      C2030   1.269       .  A
O2019      C2032   1.292       .  A
C2020      O2025   1.264       .  A
C2020      C2224   1.467       .  S
C2021      C2047   1.480       .  S
O2023      C2026   1.262       .  A
O2024      C2026   1.264       .  A
C2026      C2294   1.477       .  S
O2027      C2032   1.265       .  A
O2028      C2030   1.285       .  A
C2029      O2031   1.276       .  A
C2029      C2037   1.489       .  S
C2030      C2144   1.479       .  S
C2032      C2057   1.479       .  S
C2033      C2034   1.408       .  A
C2033      C2038   1.402       .  A
C2033      F2040   1.358       .  S
C2034      C2035   1.403       .  A
C2035      C2036   1.402       .  A
C2035      F2042   1.358       .  S
C2036      C2037   1.414       .  A
C2036      F2041   1.358       .  S
C2037      C2038   1.406       .  A
C2038      F2039   1.358       .  S
C2043      C2044   1.403       .  A
C2043      F2050   1.357       .  S
C2044      C2045   1.408       .  A
C2045      F2052   1.357       .  S
C2046      C2047   1.404       .  A
C2046      F2051   1.357       .  S
C2047      C2048   1.410       .  A
C2048      F2049   1.359       .  S
C2053      C2054   1.412       .  A
C2053      C2058   1.397   1_455  A
C2053      F2060   1.353       .  S
C2054      C2055   1.408       .  A
C2055      C2056   1.415   1_455  A
C2055      F2062   1.357       .  S
C2056      C2057   1.413       .  A
C2056      F2061   1.357       .  S
C2057      C2058   1.401       .  A
C2058      F2059   1.359       .  S
C2063      C2064   1.414       .  A
C2063      C2068   1.417   1_455  A
C2063      F2070   1.357       .  S
C2064      C2065   1.404       .  A
C2065      C2066   1.408   1_455  A
C2065      F2072   1.355       .  S
C2066      C2067   1.413       .  A
C2066      F2071   1.354       .  S
C2067      C2068   1.406       .  A
C2068      F2069   1.356       .  S
C2073      C2074   1.403       .  A
C2073      C2078   1.405       .  A
C2073      F2080   1.357       .  S
C2074      C2075   1.424       .  A
C2075      C2076   1.412       .  A
C2075      F2082   1.358       .  S
C2076      C2077   1.407       .  A
C2076      F2081   1.358       .  S
C2077      C2078   1.423       .  A
C2078      F2079   1.358       .  S
C2083      C2084   1.407       .  A
C2083      F2090   1.358       .  S
C2084      C2085   1.409       .  A
C2085      F2092   1.357       .  S
C2086      C2087   1.411       .  A
C2086      F2091   1.358       .  S
C2087      C2088   1.409       .  A
C2088      F2089   1.358       .  S
C2093      C2094   1.410       .  A
C2093      C2098   1.404       .  A
C2093      F2100   1.358       .  S
C2094      C2095   1.404       .  A
C2095      C2096   1.404       .  A
C2095      F2102   1.358       .  S
C2096      C2097   1.408       .  A
C2096      F2101   1.358       .  S
C2097      C2098   1.403       .  A
C2098      F2099   1.358       .  S
C2103      C2104   1.405       .  A
C2103      C2108   1.407       .  A
C2103      F2110   1.358       .  S
C2104      C2105   1.408       .  A
C2105      C2106   1.404       .  A
C2105      F2112   1.358       .  S
C2106      C2107   1.404       .  A
C2106      F2111   1.357       .  S
C2107      C2108   1.410       .  A
C2108      F2109   1.358       .  S
C2113      C2114   1.406       .  A
C2113      C2118   1.400       .  A
C2113      F2120   1.358       .  S
C2114      C2115   1.407       .  A
C2115      C2116   1.405       .  A
C2115      F2122   1.358       .  S
C2116      C2117   1.411       .  A
C2116      F2121   1.358       .  S
C2117      C2118   1.410       .  A
C2118      F2119   1.358       .  S
C2123      C2124   1.400       .  A
C2123      F2130   1.358       .  S
C2124      C2125   1.421       .  A
C2125      F2132   1.358       .  S
C2126      C2127   1.399       .  A
C2126      F2131   1.358       .  S
C2127      C2128   1.423   1_565  A
C2128      F2129   1.358   1_545  S
C2133      C2134   1.410       .  A
C2133      C2138   1.419       .  A
C2133      F2140   1.357       .  S
C2134      C2135   1.411       .  A
C2135      C2136   1.394       .  A
C2135      F2142   1.354       .  S
C2136      C2137   1.401       .  A
C2136      F2141   1.360       .  S
C2137      C2138   1.413       .  A
C2138      F2139   1.357       .  S
C2143      C2144   1.404       .  A
C2143      C2148   1.405       .  A
C2143      F2150   1.357       .  S
C2144      C2145   1.411       .  A
C2145      C2146   1.401       .  A
C2145      F2152   1.358       .  S
C2146      C2147   1.402       .  A
C2146      F2151   1.358       .  S
C2147      C2148   1.409       .  A
C2148      F2149   1.358       .  S
C2153      C2154   1.403       .  A
C2153      C2158   1.407       .  A
C2153      F2160   1.356       .  S
C2154      C2155   1.415       .  A
C2155      C2156   1.417       .  A
C2155      F2162   1.357       .  S
C2156      C2157   1.407       .  A
C2156      F2161   1.357       .  S
C2157      C2158   1.411       .  A
C2158      F2159   1.353       .  S
C2163      C2164   1.412       .  A
C2163      C2168   1.410       .  A
C2163      F2170   1.358       .  S
C2164      C2165   1.404       .  A
C2165      C2166   1.405       .  A
C2165      F2172   1.358       .  S
C2166      C2167   1.409       .  A
C2166      F2171   1.357       .  S
C2167      C2168   1.407       .  A
C2168      F2169   1.358       .  S
C2173      C2174   1.404       .  A
C2173      C2178   1.403       .  A
C2173      F2180   1.356       .  S
C2174      C2175   1.407       .  A
C2175      C2176   1.402       .  A
C2175      F2182   1.358       .  S
C2176      C2177   1.404       .  A
C2176      F2181   1.358       .  S
C2177      C2178   1.407       .  A
C2178      F2179   1.358       .  S
C2183      C2184   1.414       .  A
C2183      F2190   1.358       .  S
C2184      C2185   1.405       .  A
C2185      F2192   1.358       .  S
C2186      C2187   1.410       .  A
C2186      F2191   1.358       .  S
C2187      C2188   1.405       .  A
C2188      F2189   1.358       .  S
C2193      C2194   1.406       .  A
C2193      C2198   1.402       .  A
C2193      F2200   1.356       .  S
C2194      C2195   1.406       .  A
C2195      C2196   1.402       .  A
C2195      F2202   1.358       .  S
C2196      C2197   1.411       .  A
C2196      F2201   1.358       .  S
C2197      C2198   1.408       .  A
C2198      F2199   1.357       .  S
C2203      C2204   1.408       .  A
C2203      C2208   1.389       .  A
C2203      F2210   1.358       .  S
C2204      C2205   1.405       .  A
C2205      C2206   1.406       .  A
C2205      F2212   1.357       .  S
C2206      C2207   1.410       .  A
C2206      F2211   1.357       .  S
C2207      C2208   1.403       .  A
C2208      F2209   1.358   1_455  S
C2213      C2214   1.401       .  A
C2213      C2218   1.389       .  A
C2213      F2220   1.360       .  S
C2214      C2215   1.416       .  A
C2215      C2216   1.421       .  A
C2215      F2222   1.357       .  S
C2216      C2217   1.416       .  A
C2216      F2221   1.355       .  S
C2217      C2218   1.427       .  A
C2218      F2219   1.356   1_565  S
C2223      C2224   1.400       .  A
C2223      C2228   1.393       .  A
C2223      F2230   1.356       .  S
C2224      C2225   1.400       .  A
C2225      C2226   1.403       .  A
C2225      F2232   1.357       .  S
C2226      C2227   1.414       .  A
C2226      F2231   1.357       .  S
C2227      C2228   1.413       .  A
C2228      F2229   1.355       .  S
C2233      C2234   1.413       .  A
C2233      C2238   1.417       .  A
C2233      F2240   1.357       .  S
C2234      C2235   1.399       .  A
C2235      C2236   1.384       .  A
C2235      F2242   1.360       .  S
C2236      C2237   1.425       .  A
C2236      F2241   1.357       .  S
C2237      C2238   1.415       .  A
C2238      F2239   1.356       .  S
C2243      C2244   1.407       .  A
C2243      C2248   1.402       .  A
C2243      F2250   1.357       .  S
C2244      C2245   1.410       .  A
C2245      C2246   1.401       .  A
C2245      F2252   1.358       .  S
C2246      C2247   1.404       .  A
C2246      F2251   1.358       .  S
C2247      C2248   1.406       .  A
C2248      F2249   1.356       .  S
C2253      C2254   1.401       .  A
C2253      C2258   1.388       .  A
C2253      F2260   1.358       .  S
C2254      C2255   1.411       .  A
C2255      C2256   1.408       .  A
C2255      F2262   1.357       .  S
C2256      C2257   1.406       .  A
C2256      F2261   1.357       .  S
C2257      C2258   1.411       .  A
C2258      F2259   1.358       .  S
C2263      C2264   1.399       .  A
C2263      C2268   1.402       .  A
C2263      F2270   1.357       .  S
C2264      C2265   1.401       .  A
C2265      C2266   1.392       .  A
C2265      F2272   1.358       .  S
C2266      C2267   1.413       .  A
C2266      F2271   1.355       .  S
C2267      C2268   1.416       .  A
C2268      F2269   1.357       .  S
C2273      C2274   1.405       .  A
C2273      C2278   1.390       .  A
C2273      F2280   1.357       .  S
C2274      C2275   1.418       .  A
C2275      C2276   1.409       .  A
C2275      F2282   1.356       .  S
C2276      C2277   1.402       .  A
C2276      F2281   1.357       .  S
C2277      C2278   1.408       .  A
C2278      F2279   1.357       .  S
C2283      C2284   1.420       .  A
C2283      C2288   1.414       .  A
C2283      F2290   1.356       .  S
C2284      C2285   1.418       .  A
C2285      C2286   1.384       .  A
C2285      F2292   1.356   1_455  S
C2286      C2287   1.392       .  A
C2286      F2291   1.352       .  S
C2287      C2288   1.405       .  A
C2288      F2289   1.357       .  S
C2293      C2294   1.397       .  A
C2293      C2298   1.381       .  A
C2293      F2300   1.360       .  S
C2294      C2295   1.408       .  A
C2295      C2296   1.414       .  A
C2295      F2302   1.357       .  S
C2296      C2297   1.414       .  A
C2296      F2301   1.354       .  S
C2297      C2298   1.420       .  A
C2298      F2299   1.359       .  S
C2303      C2304   1.399       .  A
C2303      C2308   1.398       .  A
C2303      F2310   1.357       .  S
C2304      C2305   1.398       .  A
C2305      C2306   1.399       .  A
C2305      F2312   1.354       .  S
C2306      C2307   1.417       .  A
C2306      F2311   1.355       .  S
C2307      C2308   1.416       .  A
C2308      F2309   1.356       .  S
C2313      C2314   1.417       .  A
C2313      C2318   1.417       .  A
C2313      F2320   1.356       .  S
C2314      C2315   1.420       .  A
C2315      C2316   1.382       .  A
C2315      F2322   1.357       .  S
C2316      C2317   1.398       .  A
C2316      F2321   1.360       .  S
C2317      C2318   1.410       .  A
C2318      F2319   1.357       .  S
C2323      C2324   1.421       .  A
C2323      C2328   1.388       .  A
C2323      F2330   1.355       .  S
C2324      C2325   1.419       .  A
C2325      C2326   1.412       .  A
C2325      F2332   1.356       .  S
C2326      C2327   1.405       .  A
C2326      F2331   1.357       .  S
C2327      C2328   1.395       .  A
C2328      F2329   1.355       .  S
C2333      C2334   1.418       .  A
C2333      C2338   1.397       .  A
C2333      F2340   1.354       .  S
C2334      C2335   1.417       .  A
C2335      C2336   1.398       .  A
C2335      F2342   1.356       .  S
C2336      C2337   1.399       .  A
C2336      F2341   1.357       .  S
C2337      C2338   1.396       .  A
C2338      F2339   1.353       .  S
C2343      C2344   1.405       .  A
C2343      C2348   1.389       .  A
C2343      F2350   1.358       .  S
C2344      C2345   1.418       .  A
C2345      C2346   1.410       .  A
C2345      F2352   1.356       .  S
C2346      C2347   1.403       .  A
C2346      F2351   1.357       .  S
C2347      C2348   1.408       .  A
C2348      F2349   1.356       .  S
