geometry optimzed in LAMMPS
_audit_creation_date              2020-11-30 
_audit_creation_method            'lammps2cif' 
_symmetry_space_group_name_H-M    'P1' 
_symmetry_Int_Tables_number       1 
_symmetry_cell_setting            triclinic 
loop_ 
_symmetry_equiv_pos_as_xyz 
  x,y,z 
_cell_length_a                    54.260751294269625 
_cell_length_b                    53.96720253947472 
_cell_length_c                    53.96954490144297 
_cell_angle_alpha                 90.01828202586003 
_cell_angle_beta                  89.95223956893231 
_cell_angle_gamma                 89.92580887534714 
loop_ 
_atom_site_label 
_atom_site_type_symbol 
_atom_site_fract_x 
_atom_site_fract_y 
_atom_site_fract_z 
_atom_site_charge 
C1          C  0.70943241  0.73887075  0.70815160     0.05090
C2          C  0.73012220  0.72789316  0.69715241    -0.11060
C3          C  0.73977247  0.70586547  0.70685715     0.02590
C4          C  0.72877103  0.69487700  0.72759565    -0.09590
C5          C  0.70804149  0.70584466  0.73852554     0.05080
C6          C  0.69840724  0.72786373  0.72884404    -0.09010
H7          H  0.73826279  0.73608566  0.68073329     0.10680
H8          H  0.73590451  0.67753573  0.73478552     0.08200
H9          H  0.68199024  0.73602070  0.73694785     0.08050
C10         C  0.24873829  0.70816405  0.22041733     0.05090
C11         C  0.22873964  0.69644260  0.23185489    -0.11060
C12         C  0.21857490  0.70643141  0.25352332     0.02590
C13         C  0.22837084  0.72816190  0.26369073    -0.09590
C14         C  0.24837549  0.73983877  0.25220994     0.05080
C15         C  0.25856209  0.72984467  0.23058734    -0.09010
H16         H  0.22149797  0.67933335  0.22425999     0.10680
H17         H  0.22084400  0.73561757  0.28075701     0.08200
H18         H  0.27446717  0.73854488  0.22207033     0.08050
C19         C  0.73580618  0.25411595  0.70556146     0.05090
C20         C  0.72548285  0.23275856  0.69498788    -0.11060
C21         C  0.70443399  0.22191483  0.70550336     0.02590
C22         C  0.69378585  0.23245090  0.72675939    -0.09590
C23         C  0.70403680  0.25380692  0.73742396     0.05080
C24         C  0.72508623  0.26455481  0.72681707    -0.09010
H25         H  0.73346031  0.22494110  0.67829517     0.10680
H26         H  0.67724824  0.22439201  0.73463809     0.08200
H27         H  0.73275877  0.28132045  0.73473851     0.08050
C28         C  0.25141609  0.22183883  0.70589373     0.05090
C29         C  0.23071082  0.23269412  0.69483977    -0.11060
C30         C  0.21973175  0.25357450  0.70563512     0.02590
C31         C  0.22939374  0.26350016  0.72754253    -0.09590
C32         C  0.25007130  0.25258872  0.73858818     0.05080
C33         C  0.26105566  0.23174402  0.72779158    -0.09010
H34         H  0.22357648  0.22532859  0.67758563     0.10680
H35         H  0.22127133  0.28001945  0.73558524     0.08200
H36         H  0.27745337  0.22369402  0.73600872     0.08050
C37         C  0.22322157  0.70504324  0.70591957     0.05090
C38         C  0.23388804  0.72614506  0.69520299    -0.11060
C39         C  0.25496929  0.73682284  0.70575835     0.02590
C40         C  0.26528184  0.72644386  0.72721178    -0.09590
C41         C  0.25468848  0.70534616  0.73801700     0.05080
C42         C  0.23361897  0.69471155  0.72736481    -0.09010
H43         H  0.22617514  0.73386008  0.67835433     0.10680
H44         H  0.28185367  0.73438954  0.73511491     0.08200
H45         H  0.22570038  0.67810985  0.73538413     0.08050
C46         C  0.71014638  0.22028043  0.25232927     0.05090
C47         C  0.70030577  0.23020535  0.23053553    -0.11060
C48         C  0.71051611  0.25165417  0.22025916     0.02590
C49         C  0.73056617  0.26320678  0.23175988    -0.09590
C50         C  0.74039734  0.25328328  0.25359347     0.05080
C51         C  0.73021141  0.23177933  0.26386268    -0.09010
H52         H  0.68436183  0.22164672  0.22196915     0.10680
H53         H  0.73809626  0.28015565  0.22408929     0.08200
H54         H  0.73747637  0.22437656  0.28104851     0.08050
O55         O  0.50451234  0.45539965  0.12338203    -0.70980
O56         O  0.45272203  0.50465555  0.12470873    -0.71970
O57         O  0.50439179  0.50703862  0.12537846    -0.60580
O58         O  0.45336082  0.45336785  0.12562872    -0.69000
O59         O  0.45389088  0.45307559  0.16673998    -0.68550
O60         O  0.50522302  0.50627395  0.16647262    -0.59800
O61         O  0.45191208  0.50624879  0.16580334    -0.72310
O62         O  0.50691793  0.45285670  0.16434378    -0.71090
Cu63       Cu  0.47879574  0.48019780  0.12355361     1.04560
Cu64       Cu  0.47956689  0.47966270  0.16751017     1.04330
C65         C  0.51381664  0.44581764  0.14263044     0.95210
C66         C  0.44345721  0.51297660  0.14456795     0.94350
C67         C  0.51301558  0.51499509  0.14599075     0.86500
C68         C  0.44545807  0.44486360  0.14631363     0.92770
N69         N  0.30396928  0.30455958  0.13037594    -0.25330
N70         N  0.31614505  0.31649514  0.14808108    -0.33190
C71         C  0.30828314  0.30828157  0.17027851     0.03010
C72         C  0.29047861  0.29048631  0.16641831     0.09030
C73         C  0.28814244  0.28853489  0.14103339    -0.04060
H74         H  0.31508746  0.31481314  0.18794612     0.09700
H75         H  0.27586570  0.27636155  0.13098941     0.10900
Cu76       Cu  0.34325884  0.34364595  0.14308282     0.44170
Cu77       Cu  0.30831045  0.30941655  0.09207495     0.41990
Cu78       Cu  0.35267662  0.35395325  0.07952291     0.43880
N79         N  0.36895740  0.36938764  0.13006182    -0.32720
N80         N  0.37165903  0.37248572  0.10597633    -0.26970
C81         C  0.38881402  0.38957610  0.10146965    -0.03070
C82         C  0.39767102  0.39793885  0.12370867     0.09140
C83         C  0.38475041  0.38482603  0.14176389     0.02940
H84         H  0.39444963  0.39546543  0.08315524     0.10590
H85         H  0.38663652  0.38635140  0.16165434     0.09670
N86         N  0.33463410  0.33620131  0.05183961    -0.34170
N87         N  0.31765336  0.31917632  0.05573124    -0.26350
C88         C  0.30941142  0.31117688  0.03351045    -0.01590
C89         C  0.32208351  0.32404852  0.01523713     0.07020
C90         C  0.33783618  0.33966371  0.02749970     0.05120
H91         H  0.29539962  0.29719107  0.03088507     0.10220
H92         H  0.35072679  0.35263941  0.01939429     0.09060
N93         N  0.30291047  0.65793470  0.13183643    -0.25330
N94         N  0.31454764  0.64783666  0.15085652    -0.33190
C95         C  0.30503512  0.65673579  0.17200972     0.03010
C96         C  0.28661341  0.67316322  0.16596320     0.09030
C97         C  0.28560872  0.67362936  0.14043633    -0.04060
H98         H  0.31105242  0.65151121  0.19038924     0.09700
H99         H  0.27324815  0.68440556  0.12897750     0.10900
Cu100      Cu  0.34247673  0.62216673  0.14801340     0.44170
Cu101      Cu  0.31091595  0.64963139  0.09527557     0.41990
Cu102      Cu  0.35783244  0.60262196  0.08615273     0.43880
N103        N  0.36886559  0.59573147  0.14087112    -0.32720
N104        N  0.37416238  0.58822157  0.11817980    -0.26970
C105        C  0.39149980  0.57051574  0.11959003    -0.03070
C106        C  0.39736952  0.56664372  0.14440636     0.09140
C107        C  0.38277328  0.58317000  0.15731536     0.02940
H108        H  0.39946215  0.56144816  0.10360109     0.10590
H109        H  0.38202233  0.58565630  0.17719239     0.09670
N110        N  0.33949633  0.62058757  0.05717952    -0.34170
N111        N  0.32243788  0.63778771  0.06070463    -0.26350
C112        C  0.31433975  0.64597537  0.03861216    -0.01590
C113        C  0.32688040  0.63333942  0.02034118     0.07020
C114        C  0.34268145  0.61739348  0.03261757     0.05120
H115        H  0.30041938  0.66012005  0.03610404     0.10220
H116        H  0.35559081  0.60451564  0.02434494     0.09060
N117        N  0.65743822  0.30254525  0.13147008    -0.25330
N118        N  0.64688289  0.31380802  0.15051514    -0.33190
C119        C  0.65639325  0.30490469  0.17164575     0.03010
C120        C  0.67369091  0.28728335  0.16558311     0.09030
C121        C  0.67402774  0.28609846  0.14005907    -0.04060
H122        H  0.65109629  0.31089530  0.19002868     0.09700
H123        H  0.68543017  0.27428803  0.12858833     0.10900
Cu124      Cu  0.62016624  0.34080853  0.14795560     0.44170
Cu125      Cu  0.64899577  0.31006300  0.09480610     0.41990
Cu126      Cu  0.60233990  0.35679869  0.08584869     0.43880
N127        N  0.59377300  0.36716738  0.14051716    -0.32720
N128        N  0.58731835  0.37289646  0.11764332    -0.26970
C129        C  0.56988309  0.39048022  0.11853584    -0.03070
C130        C  0.56496295  0.39615372  0.14326356     0.09140
C131        C  0.58060156  0.38096887  0.15662542     0.02940
H132        H  0.56169728  0.39846248  0.10213199     0.10590
H133        H  0.58226127  0.37996093  0.17658416     0.09670
N134        N  0.61997916  0.33846913  0.05673783    -0.34170
N135        N  0.63711055  0.32134202  0.06015148    -0.26350
C136        C  0.64503503  0.31310580  0.03798545    -0.01590
C137        C  0.63227453  0.32564936  0.01980786     0.07020
C138        C  0.61654350  0.34157781  0.03221488     0.05120
H139        H  0.65905562  0.29907990  0.03535904     0.10220
H140        H  0.60361318  0.35449181  0.02405847     0.09060
N141        N  0.65536269  0.65455661  0.13105348    -0.25330
N142        N  0.64311793  0.64255782  0.14866593    -0.33190
C143        C  0.65098914  0.65063985  0.17090386     0.03010
C144        C  0.66886279  0.66839711  0.16709864     0.09030
C145        C  0.67122673  0.67047343  0.14175117    -0.04060
H146        H  0.64413975  0.64406972  0.18854430     0.09700
H147        H  0.68353196  0.68266911  0.13175128     0.10900
Cu148      Cu  0.61589760  0.61556432  0.14323984     0.44170
Cu149      Cu  0.65106283  0.64997170  0.09287597     0.41990
Cu150      Cu  0.60651135  0.60575317  0.07924971     0.43880
N151        N  0.59003421  0.59013377  0.12983738    -0.32720
N152        N  0.58731130  0.58722558  0.10572102    -0.26970
C153        C  0.56994489  0.57035048  0.10114208    -0.03070
C154        C  0.56097874  0.56192586  0.12334230     0.09140
C155        C  0.57406771  0.57478563  0.14145084     0.02940
H156        H  0.56422950  0.56464860  0.08280135     0.10590
H157        H  0.57214776  0.57317964  0.16133477     0.09670
N158        N  0.62504398  0.62393943  0.05201424    -0.34170
N159        N  0.64203943  0.64081199  0.05646664    -0.26350
C160        C  0.65066111  0.64927745  0.03458796    -0.01590
C161        C  0.63824370  0.63689355  0.01588133     0.07020
C162        C  0.62221693  0.62104620  0.02754308     0.05120
H163        H  0.66475823  0.66326743  0.03249330     0.10220
H164        H  0.60939866  0.60832640  0.01894240     0.09060
O165        O  0.50464968  0.50482261  0.78419234    -0.70980
O166        O  0.45111788  0.45207213  0.79529040    -0.71970
O167        O  0.45176799  0.50500788  0.78891696    -0.60580
O168        O  0.50380586  0.45170566  0.78883543    -0.69000
O169        O  0.50750078  0.45583542  0.82955434    -0.68550
O170        O  0.45601390  0.50868310  0.82962482    -0.59800
O171        O  0.45638475  0.45731170  0.83574014    -0.72310
O172        O  0.50725429  0.50733455  0.82503782    -0.71090
Cu173      Cu  0.47766453  0.47823817  0.78770374     1.04560
Cu174      Cu  0.48193184  0.48243544  0.83121515     1.04330
C175        C  0.51437595  0.51427921  0.80368163     0.95210
C176        C  0.44559097  0.44668087  0.81780619     0.94350
C177        C  0.44564538  0.51518369  0.80936412     0.86500
C178        C  0.51381662  0.44534859  0.80925769     0.92770
N179        N  0.30169930  0.30381520  0.82803422    -0.25330
N180        N  0.31301143  0.31474838  0.80926775    -0.33190
C181        C  0.30403267  0.30579937  0.78790668     0.03010
C182        C  0.28630092  0.28849550  0.79356236     0.09030
C183        C  0.28516340  0.28756242  0.81906736    -0.04060
H184        H  0.30996692  0.31154321  0.76965100     0.09700
H185        H  0.27325149  0.27604661  0.83027703     0.10900
Cu186      Cu  0.33997839  0.34143341  0.81279492     0.44170
Cu187      Cu  0.30912304  0.31152665  0.86483171     0.41990
Cu188      Cu  0.35565355  0.35823175  0.87533996     0.43880
N189        N  0.36617470  0.36780659  0.82107974    -0.32720
N190        N  0.37183935  0.37393078  0.84407289    -0.26970
C191        C  0.38935451  0.39145329  0.84354554    -0.03070
C192        C  0.39504985  0.39666402  0.81894785     0.09140
C193        C  0.37993696  0.38127104  0.80526914     0.02940
H194        H  0.39721006  0.39961825  0.86002140     0.10590
H195        H  0.37900808  0.37992701  0.78528221     0.09670
N196        N  0.33713493  0.33984408  0.90369459    -0.34170
N197        N  0.32012357  0.32275242  0.89974524    -0.26350
C198        C  0.31174152  0.31433622  0.92164627    -0.01590
C199        C  0.32407775  0.32673739  0.94017615     0.07020
C200        C  0.34002971  0.34275838  0.92829375     0.05120
H201        H  0.29776706  0.30022921  0.92384819     0.10220
H202        H  0.35281617  0.35553379  0.93684833     0.09060
N203        N  0.30480424  0.65600584  0.83023869    -0.25330
N204        N  0.31668512  0.64395937  0.81237315    -0.33190
C205        C  0.30843605  0.65200476  0.79027365     0.03010
C206        C  0.29065375  0.66981265  0.79433278     0.09030
C207        C  0.28874810  0.67196074  0.81976048    -0.04060
H208        H  0.31494237  0.64531972  0.77253119     0.09700
H209        H  0.27659028  0.68418686  0.82994166     0.10900
Cu210      Cu  0.34383875  0.61681640  0.81699382     0.44170
Cu211      Cu  0.30994447  0.65113563  0.86848354     0.41990
Cu212      Cu  0.35507865  0.60632796  0.88023052     0.43880
N213        N  0.36998509  0.59111550  0.82907926    -0.32720
N214        N  0.37357252  0.58794744  0.85303870    -0.26970
C215        C  0.39114844  0.57102074  0.85674245    -0.03070
C216        C  0.39927011  0.56283482  0.83408225     0.09140
C217        C  0.38549653  0.57589288  0.81666549     0.02940
H218        H  0.39758242  0.56511554  0.87478014     0.10590
H219        H  0.38672794  0.57458608  0.79670767     0.09670
N220        N  0.33716830  0.62415486  0.90820192    -0.34170
N221        N  0.32003801  0.64115938  0.90462479    -0.26350
C222        C  0.31202083  0.64903138  0.92701037    -0.01590
C223        C  0.32497027  0.63612528  0.94508055     0.07020
C224        C  0.34065618  0.62061080  0.93250315     0.05120
H225        H  0.29792893  0.66293218  0.92988618     0.10220
H226        H  0.35367097  0.60760745  0.94037962     0.09060
N227        N  0.65387859  0.30365778  0.82952354    -0.25330
N228        N  0.64188510  0.31558852  0.81168547    -0.33190
C229        C  0.65005386  0.30744962  0.78956400     0.03010
C230        C  0.66789261  0.28968612  0.79357907     0.09030
C231        C  0.66991912  0.28768204  0.81900958    -0.04060
H232        H  0.64343987  0.31402255  0.77183573     0.09700
H233        H  0.68213189  0.27551651  0.82916880     0.10900
Cu234      Cu  0.61466021  0.34267658  0.81644467     0.44170
Cu235      Cu  0.64882324  0.30866410  0.86778349     0.41990
Cu236      Cu  0.60330152  0.35303974  0.87983102     0.43880
N237        N  0.58877542  0.36863601  0.82867448    -0.32720
N238        N  0.58525007  0.37184826  0.85264927    -0.26970
C239        C  0.56835963  0.38946417  0.85641451    -0.03070
C240        C  0.56056140  0.39800030  0.83378721     0.09140
C241        C  0.57381808  0.38443385  0.81632071     0.02940
H242        H  0.56227157  0.39570048  0.87447648     0.10590
H243        H  0.57287890  0.38605425  0.79637220     0.09670
N244        N  0.62140107  0.33528269  0.90771012    -0.34170
N245        N  0.63871674  0.31848877  0.90399452    -0.26350
C246        C  0.64689851  0.31065105  0.92631194    -0.01590
C247        C  0.63386995  0.32335166  0.94449647     0.07020
C248        C  0.61796101  0.33872366  0.93204785     0.05120
H249        H  0.66114970  0.29689864  0.92906676     0.10220
H250        H  0.60483248  0.35156151  0.94003683     0.09060
N251        N  0.65537674  0.65448867  0.82716246    -0.25330
N252        N  0.64375609  0.64298584  0.80887748    -0.33190
C253        C  0.65241871  0.65149658  0.78714884     0.03010
C254        C  0.67017616  0.66902812  0.79209272     0.09030
C255        C  0.67167581  0.67056005  0.81749893    -0.04060
H256        H  0.64627083  0.64529277  0.76912643     0.09700
H257        H  0.68372773  0.68237982  0.82822430     0.10900
Cu258      Cu  0.61673589  0.61600048  0.81305226     0.44170
Cu259      Cu  0.64960881  0.64859351  0.86462650     0.41990
Cu260      Cu  0.60519049  0.60302666  0.87725196     0.43880
N261        N  0.59115453  0.58978265  0.82451947    -0.32720
N262        N  0.58753489  0.58547063  0.84834405    -0.26970
C263        C  0.57040085  0.56791671  0.85093365    -0.03070
C264        C  0.56263438  0.56064004  0.82776401     0.09140
C265        C  0.57613581  0.57485901  0.81119420     0.02940
H266        H  0.56395215  0.56094960  0.86858949     0.10590
H267        H  0.57517123  0.57443389  0.79118532     0.09670
N268        N  0.62350921  0.62168425  0.90504039    -0.34170
N269        N  0.64022317  0.63884272  0.90045671    -0.26350
C270        C  0.64889718  0.64768677  0.92208513    -0.01590
C271        C  0.63694105  0.63537627  0.94100820     0.07020
C272        C  0.62099423  0.61905202  0.92966337     0.05120
H273        H  0.66278048  0.66193977  0.92384557     0.10220
H274        H  0.60849095  0.60623253  0.93858627     0.09060
O275        O  0.50790317  0.16494938  0.45187830    -0.70980
O276        O  0.45466091  0.17584551  0.50513286    -0.71970
O277        O  0.50756705  0.17129383  0.50485021    -0.60580
O278        O  0.45518535  0.17127642  0.45197023    -0.69000
O279        O  0.45166858  0.13053925  0.45604200    -0.68550
O280        O  0.50340602  0.13058440  0.50856381    -0.59800
O281        O  0.45216301  0.13498965  0.50754353    -0.72310
O282        O  0.50282665  0.12449095  0.45721830    -0.71090
Cu283      Cu  0.48149128  0.17245189  0.47828979     1.04560
Cu284      Cu  0.47737545  0.12892940  0.48247681     1.04330
C285        C  0.51350157  0.14243839  0.44649377     0.95210
C286        C  0.44507868  0.15631170  0.51465590     0.94350
C287        C  0.51377508  0.15086264  0.51499086     0.86500
C288        C  0.44519769  0.15083331  0.44566144     0.92770
N289        N  0.30449380  0.13036037  0.30487429    -0.25330
N290        N  0.31654451  0.14823185  0.31667364    -0.33190
C291        C  0.30849841  0.17032480  0.30835839     0.03010
C292        C  0.29068793  0.16624149  0.29062097     0.09030
C293        C  0.28854396  0.14081409  0.28881318    -0.04060
H294        H  0.31517249  0.18807703  0.31479575     0.09700
H295        H  0.27631045  0.13061322  0.27672626     0.10900
Cu296      Cu  0.34366507  0.14354747  0.34382686     0.44170
Cu297      Cu  0.30930248  0.09213913  0.31015763     0.41990
Cu298      Cu  0.35387867  0.08015887  0.35538426     0.43880
N299        N  0.36929729  0.13135391  0.37000791    -0.32720
N300        N  0.37233892  0.10738434  0.37371799    -0.26970
C301        C  0.38926019  0.10365082  0.39127464    -0.03070
C302        C  0.39758729  0.12628880  0.39925430     0.09140
C303        C  0.38460327  0.14373132  0.38541962     0.02940
H304        H  0.39507725  0.08560174  0.39778776     0.10590
H305        H  0.38602309  0.16368628  0.38654156     0.09670
N306        N  0.33595296  0.05225122  0.33749743    -0.34170
N307        N  0.31902798  0.05596210  0.32034317    -0.26350
C308        C  0.31096416  0.03365253  0.31238429    -0.01590
C309        C  0.32365702  0.01546956  0.32538426     0.07020
C310        C  0.33925732  0.02791088  0.34105160     0.05120
H311        H  0.29704349  0.03090364  0.29832136     0.10220
H312        H  0.35211876  0.01991537  0.35412569     0.09060
N313        N  0.65669259  0.13153625  0.30276936    -0.25330
N314        N  0.64528886  0.15035520  0.31355495    -0.33190
C315        C  0.65456936  0.17167303  0.30482672     0.03010
C316        C  0.67259503  0.16592147  0.28782470     0.09030
C317        C  0.67359174  0.14041554  0.28683310    -0.04060
H318        H  0.64867598  0.18995753  0.31055378     0.09700
H319        H  0.68568058  0.12914655  0.27552589     0.10900
Cu320      Cu  0.61796290  0.14692598  0.33990507     0.44170
Cu321      Cu  0.64899905  0.09480462  0.31035927     0.41990
Cu322      Cu  0.60239328  0.08444053  0.35710721     0.43880
N323        N  0.59181361  0.13877237  0.36638461    -0.32720
N324        N  0.58623279  0.11581516  0.37270978    -0.26970
C325        C  0.56885362  0.11645521  0.39039996    -0.03070
C326        C  0.56317886  0.14108951  0.39552273     0.09140
C327        C  0.57812949  0.15466891  0.37987278     0.02940
H328        H  0.56107412  0.10002740  0.39873469     0.10590
H329        H  0.57905947  0.17464878  0.37842557     0.09670
N330        N  0.62082295  0.05603250  0.33862659    -0.34170
N331        N  0.63783904  0.05995340  0.32150251    -0.26350
C332        C  0.64612738  0.03805015  0.31297212    -0.01590
C333        C  0.63372892  0.01954201  0.32533220     0.07020
C334        C  0.61783324  0.03143535  0.34145057     0.05120
H335        H  0.66007710  0.03583505  0.29881158     0.10220
H336        H  0.60501270  0.02289167  0.35421613     0.09060
N337        N  0.30461581  0.13278493  0.65559188    -0.25330
N338        N  0.31615427  0.15101128  0.64391215    -0.33190
C339        C  0.30731987  0.17278264  0.65216860     0.03010
C340        C  0.28952730  0.16793090  0.66971804     0.09030
C341        C  0.28819121  0.14253179  0.67153029    -0.04060
H342        H  0.31337209  0.19077092  0.64577545     0.09700
H343        H  0.27616160  0.13186880  0.68344273     0.10900
Cu344      Cu  0.34328154  0.14669159  0.61702342     0.44170
Cu345      Cu  0.31067252  0.09529991  0.65005189     0.41990
Cu346      Cu  0.35572041  0.08245820  0.60493794     0.43880
N347        N  0.36915245  0.13519410  0.59106751    -0.32720
N348        N  0.37319158  0.11136508  0.58712821    -0.26970
C349        C  0.39046532  0.10879755  0.56966354    -0.03070
C350        C  0.39785628  0.13198895  0.56204997     0.09140
C351        C  0.38399724  0.14854034  0.57597635     0.02940
H352        H  0.39721108  0.09114804  0.56293238     0.10590
H353        H  0.38458833  0.16855484  0.57522819     0.09670
N354        N  0.33725190  0.05476413  0.62365088    -0.34170
N355        N  0.32031846  0.05943403  0.64061159    -0.26350
C356        C  0.31155667  0.03784976  0.64947623    -0.01590
C357        C  0.32368094  0.01885823  0.63739314     0.07020
C358        C  0.33981732  0.03012231  0.62117406     0.05120
H359        H  0.29747827  0.03616536  0.66357092     0.10220
H360        H  0.35246104  0.02113039  0.60850866     0.09060
N361        N  0.65542627  0.12974816  0.65481217    -0.25330
N362        N  0.64343289  0.14764842  0.64295674    -0.33190
C363        C  0.65144617  0.16973148  0.65128791     0.03010
C364        C  0.66918973  0.16564259  0.66909646     0.09030
C365        C  0.67131966  0.14019617  0.67093100    -0.04060
H366        H  0.64476384  0.18748886  0.64483789     0.09700
H367        H  0.68348373  0.12998357  0.68309677     0.10900
Cu368      Cu  0.61628913  0.14308168  0.61582188     0.44170
Cu369      Cu  0.65050609  0.09148473  0.64953994     0.41990
Cu370      Cu  0.60517976  0.07983055  0.60495915     0.43880
N371        N  0.58999543  0.13107170  0.59025957    -0.32720
N372        N  0.58644823  0.10711874  0.58697867    -0.26970
C373        C  0.56873396  0.10346990  0.57022317    -0.03070
C374        C  0.56047745  0.12615401  0.56225723     0.09140
C375        C  0.57431809  0.14353218  0.57527464     0.02940
H376        H  0.56230274  0.08544861  0.56427459     0.10590
H377        H  0.57301161  0.16349536  0.57410781     0.09670
N378        N  0.62332204  0.05179243  0.62243735    -0.34170
N379        N  0.64051537  0.05533339  0.63935116    -0.26350
C380        C  0.64862016  0.03292127  0.64705290    -0.01590
C381        C  0.63567051  0.01486717  0.63413550     0.07020
C382        C  0.61988583  0.02749223  0.61878837     0.05120
H383        H  0.66274816  0.03001321  0.66087809     0.10220
H384        H  0.60680683  0.01964632  0.60585705     0.09060
O385        O  0.50718177  0.83524977  0.50377080    -0.70980
O386        O  0.45314979  0.83667422  0.45677454    -0.71970
O387        O  0.45555179  0.83461826  0.50814245    -0.60580
O388        O  0.50456306  0.83446570  0.45252011    -0.69000
O389        O  0.50440121  0.79334773  0.45248637    -0.68550
O390        O  0.45443522  0.79353287  0.50705228    -0.59800
O391        O  0.45127591  0.79570058  0.45389389    -0.72310
O392        O  0.50769238  0.79416091  0.50557709    -0.71090
Cu393      Cu  0.48011013  0.83648848  0.48034115     1.04560
Cu394      Cu  0.47940943  0.79253022  0.47975589     1.04330
C395        C  0.51646348  0.81535207  0.51199748     0.95210
C396        C  0.44342863  0.81735402  0.44775472     0.94350
C397        C  0.44695660  0.81400283  0.51611029     0.86500
C398        C  0.51249129  0.81378832  0.44397524     0.92770
N399        N  0.30111626  0.82850692  0.30358033    -0.25330
N400        N  0.31212141  0.80947265  0.31439331    -0.33190
C401        C  0.30277587  0.78832489  0.30535539     0.03010
C402        C  0.28512380  0.79437328  0.28811805     0.09030
C403        C  0.28440568  0.81990276  0.28730192    -0.04060
H404        H  0.30841542  0.76994010  0.31100051     0.09700
H405        H  0.27265696  0.83136842  0.27585939     0.10900
Cu406      Cu  0.33919283  0.81212472  0.34102082     0.44170
Cu407      Cu  0.30911638  0.86517676  0.31148532     0.41990
Cu408      Cu  0.35585803  0.87421398  0.35817048     0.43880
N409        N  0.36566933  0.81958181  0.36730237    -0.32720
N410        N  0.37162599  0.84245283  0.37358900    -0.26970
C411        C  0.38921567  0.84151047  0.39100676    -0.03070
C412        C  0.39459420  0.81678043  0.39609432     0.09140
C413        C  0.37935025  0.80344019  0.38052370     0.02940
H414        H  0.39760834  0.85781408  0.39898067     0.10590
H415        H  0.37819001  0.78348204  0.37897495     0.09670
N416        N  0.33779324  0.90325905  0.34018307    -0.34170
N417        N  0.32068742  0.89982422  0.32306775    -0.26350
C418        C  0.31263567  0.92198143  0.31495274    -0.01590
C419        C  0.32528062  0.94017205  0.32756756     0.07020
C420        C  0.34107385  0.92778672  0.34340904     0.05120
H421        H  0.29865624  0.92459124  0.30091138     0.10220
H422        H  0.35400398  0.93596108  0.35628472     0.09060
N423        N  0.65402060  0.82938937  0.30348095    -0.25330
N424        N  0.64187908  0.81171695  0.31550681    -0.33190
C425        C  0.64998756  0.78949953  0.30756523     0.03010
C426        C  0.66791641  0.79332779  0.28986513     0.09030
C427        C  0.67006990  0.81869722  0.28767118    -0.04060
H428        H  0.64329371  0.77184471  0.31424472     0.09700
H429        H  0.68239870  0.82870913  0.27550926     0.10900
Cu430      Cu  0.61457613  0.81675738  0.34249480     0.44170
Cu431      Cu  0.64946335  0.86768285  0.30796977     0.41990
Cu432      Cu  0.60465036  0.88031154  0.35207928     0.43880
N433        N  0.58871813  0.82986028  0.36807809    -0.32720
N434        N  0.58582654  0.85395870  0.37091700    -0.26970
C435        C  0.56865496  0.85853544  0.38801356    -0.03070
C436        C  0.55996939  0.83632603  0.39663095     0.09140
C437        C  0.57302576  0.81821750  0.38368043     0.02940
H438        H  0.56290387  0.87687487  0.39374493     0.10590
H439        H  0.57133032  0.79833093  0.38545623     0.09670
N440        N  0.62273263  0.90795006  0.33430625    -0.34170
N441        N  0.63991560  0.90402675  0.31745734    -0.26350
C442        C  0.64825235  0.92622621  0.30951316    -0.01590
C443        C  0.63541886  0.94451785  0.32223623     0.07020
C444        C  0.61948507  0.93229367  0.33770962     0.05120
H445        H  0.66247458  0.92882192  0.29571091     0.10220
H446        H  0.60649299  0.94042542  0.35059974     0.09060
N447        N  0.30470069  0.82870724  0.65596466    -0.25330
N448        N  0.31690794  0.81112793  0.64383324    -0.33190
C449        C  0.30892919  0.78886019  0.65172601     0.03010
C450        C  0.29101828  0.79259997  0.66950413     0.09030
C451        C  0.28875057  0.81795083  0.67178373    -0.04060
H452        H  0.31573116  0.77124174  0.64501270     0.09700
H453        H  0.27644926  0.82791057  0.68405040     0.10900
Cu454      Cu  0.34422565  0.81664921  0.61691343     0.44170
Cu455      Cu  0.30918356  0.86692453  0.65165654     0.41990
Cu456      Cu  0.35415504  0.88066912  0.60781573     0.43880
N457        N  0.37026226  0.83011472  0.59166829    -0.32720
N458        N  0.37319652  0.85423549  0.58903249    -0.26970
C459        C  0.39061160  0.85883959  0.57218607    -0.03070
C460        C  0.39939771  0.83664824  0.56351398     0.09140
C461        C  0.38614332  0.81852195  0.57617590     0.02940
H462        H  0.39646357  0.87718865  0.56665652     0.10590
H463        H  0.38786590  0.79863919  0.57431280     0.09670
N464        N  0.33556968  0.90785854  0.62605640    -0.34170
N465        N  0.31839821  0.90338212  0.64277291    -0.26350
C466        C  0.30972418  0.92526093  0.65124227    -0.01590
C467        C  0.32229687  0.94398457  0.63902387     0.07020
C468        C  0.33846149  0.93233170  0.62326902     0.05120
H469        H  0.29546682  0.92734571  0.66509910     0.10220
H470        H  0.35139207  0.94094089  0.61065229     0.09060
N471        N  0.65695511  0.82797052  0.65695890    -0.25330
N472        N  0.64520199  0.80897495  0.64696357    -0.33190
C473        C  0.65440372  0.78780849  0.65615176     0.03010
C474        C  0.67273830  0.79380405  0.67266825     0.09030
C475        C  0.67401501  0.81933110  0.67287362    -0.04060
H476        H  0.64821192  0.76944440  0.65108899     0.09700
H477        H  0.68637904  0.83076387  0.68365031     0.10900
Cu478      Cu  0.61742968  0.81185039  0.62111677     0.44170
Cu479      Cu  0.64934415  0.86457225  0.64829517     0.41990
Cu480      Cu  0.60270408  0.87365331  0.60103888     0.43880
N481        N  0.59118053  0.81900084  0.59452983    -0.32720
N482        N  0.58615577  0.84167503  0.58679318    -0.26970
C483        C  0.56888175  0.84028864  0.56904923    -0.03070
C484        C  0.56274566  0.81551152  0.56539955     0.09140
C485        C  0.57712745  0.80259827  0.58209424     0.02940
H486        H  0.56110936  0.85626864  0.55982126     0.10590
H487        H  0.57761790  0.78274101  0.58479235     0.09670
N488        N  0.62111345  0.90264724  0.61888209    -0.34170
N489        N  0.63806998  0.89916172  0.63615728    -0.26350
C490        C  0.64619830  0.92128809  0.64423420    -0.01590
C491        C  0.63378765  0.93953659  0.63144620     0.07020
C492        C  0.61802906  0.92720317  0.61553195     0.05120
H493        H  0.66003153  0.92383878  0.65842807     0.10220
H494        H  0.60519500  0.93543687  0.60258299     0.09060
C495        C  0.73616325  0.70551791  0.25464982     0.05090
C496        C  0.72569710  0.69471869  0.23349678    -0.11060
C497        C  0.70450955  0.70506424  0.22279233     0.02590
C498        C  0.69389138  0.72637640  0.23319247    -0.09590
C499        C  0.70429315  0.73723678  0.25434875     0.05080
C500        C  0.72547255  0.72681622  0.26500791    -0.09010
H501        H  0.73363443  0.67795674  0.22577820     0.10680
H502        H  0.67722788  0.73410536  0.22523306     0.08200
H503        H  0.73323748  0.73488101  0.28166236     0.08050
O504        O  0.17550138  0.45302753  0.50655027    -0.70980
O505        O  0.17557382  0.50626256  0.45326030    -0.71970
O506        O  0.17560414  0.50627764  0.50648596    -0.60580
O507        O  0.17562262  0.45304534  0.45330861    -0.69000
O508        O  0.13477149  0.45371898  0.45388375    -0.68550
O509        O  0.13475247  0.50575292  0.50594156    -0.59800
O510        O  0.13472861  0.50565279  0.45399206    -0.72310
O511        O  0.13465750  0.45376809  0.50585152    -0.71090
Cu512      Cu  0.17713502  0.47964904  0.47990742     1.04560
Cu513      Cu  0.13344961  0.47972368  0.47992288     1.04330
C514        C  0.15475378  0.44505529  0.51451214     0.95210
C515        C  0.15483838  0.51427144  0.44528924     0.94350
C516        C  0.15492141  0.51437123  0.51452224     0.86500
C517        C  0.15493911  0.44507991  0.44523513     0.92770
N518        N  0.13177681  0.30436527  0.30446346    -0.25330
N519        N  0.14952221  0.31632236  0.31640453    -0.33190
C520        C  0.17149889  0.30810031  0.30821671     0.03010
C521        C  0.16741626  0.29024895  0.29040496     0.09030
C522        C  0.14213507  0.28827828  0.28841981    -0.04060
H523        H  0.18915462  0.31467726  0.31477951     0.09700
H524        H  0.13197512  0.27608038  0.27623820     0.10900
Cu525      Cu  0.14439481  0.34351785  0.34346322     0.44170
Cu526      Cu  0.09399033  0.30971866  0.30976650     0.41990
Cu527      Cu  0.08081449  0.35553823  0.35464832     0.43880
N528        N  0.13245079  0.36973201  0.36923339    -0.32720
N529        N  0.10869092  0.37370760  0.37279600    -0.26970
C530        C  0.10565519  0.39119966  0.39009434    -0.03070
C531        C  0.12851595  0.39880752  0.39803533     0.09140
C532        C  0.14531387  0.38484356  0.38444848     0.02940
H533        H  0.08794224  0.39787418  0.39650988     0.10590
H534        H  0.16520417  0.38554543  0.38552220     0.09670
N535        N  0.05356549  0.33666452  0.33622918    -0.34170
N536        N  0.05799914  0.31946196  0.31938514    -0.26350
C537        C  0.03626961  0.31075362  0.31091890    -0.01590
C538        C  0.01757311  0.32323989  0.32319047     0.07020
C539        C  0.02914667  0.33946145  0.33903713     0.05120
H540        H  0.03426841  0.29650655  0.29697311     0.10220
H541        H  0.02050264  0.35237936  0.35170100     0.09060
N542        N  0.12991525  0.65434088  0.30497595    -0.25330
N543        N  0.14782854  0.64243622  0.31672969    -0.33190
C544        C  0.16966817  0.65075894  0.30840111     0.03010
C545        C  0.16522236  0.66860334  0.29071076     0.09030
C546        C  0.13997131  0.67049709  0.28891528    -0.04060
H547        H  0.18743610  0.64429195  0.31481320     0.09700
H548        H  0.12962080  0.68270458  0.27688838     0.10900
Cu549      Cu  0.14301624  0.61537309  0.34374615     0.44170
Cu550      Cu  0.09236224  0.64902537  0.31049120     0.41990
Cu551      Cu  0.07925873  0.60392264  0.35582431     0.43880
N552        N  0.13119518  0.58956753  0.36974279    -0.32720
N553        N  0.10747316  0.58580659  0.37373810    -0.26970
C554        C  0.10470537  0.56844718  0.39120001    -0.03070
C555        C  0.12769716  0.56073755  0.39874044     0.09140
C556        C  0.14428386  0.57448092  0.38478218     0.02940
H557        H  0.08709630  0.56188704  0.39795523     0.10590
H558        H  0.16419030  0.57363328  0.38545746     0.09670
N559        N  0.05193761  0.62271508  0.33718823    -0.34170
N560        N  0.05648998  0.63966139  0.32014788    -0.26350
C561        C  0.03488561  0.64846653  0.31147513    -0.01590
C562        C  0.01608009  0.63632462  0.32380280     0.07020
C563        C  0.02747753  0.62018071  0.33991684     0.05120
H564        H  0.03305109  0.66255611  0.29734867     0.10220
H565        H  0.01868773  0.60751039  0.35269394     0.09060
N566        N  0.13003542  0.30479226  0.65475444    -0.25330
N567        N  0.14789536  0.31661958  0.64285484    -0.33190
C568        C  0.16977475  0.30827031  0.65107289     0.03010
C569        C  0.16542899  0.29048334  0.66884463     0.09030
C570        C  0.14017828  0.28865772  0.67080437    -0.04060
H571        H  0.18751050  0.31469998  0.64454715     0.09700
H572        H  0.12988853  0.27652895  0.68295382     0.10900
Cu573      Cu  0.14298497  0.34365059  0.61579952     0.44170
Cu574      Cu  0.09243321  0.31024713  0.64944310     0.41990
Cu575      Cu  0.07923361  0.35503291  0.60371832     0.43880
N576        N  0.13114006  0.36940310  0.58973137    -0.32720
N577        N  0.10741349  0.37310715  0.58569083    -0.26970
C578        C  0.10462564  0.39046585  0.56822238    -0.03070
C579        C  0.12760867  0.39824607  0.56073397     0.09140
C580        C  0.14420874  0.38453164  0.57472456     0.02940
H581        H  0.08700843  0.39701848  0.56146559     0.10590
H582        H  0.16411247  0.38544979  0.57411397     0.09670
N583        N  0.05194241  0.33654092  0.62271500    -0.34170
N584        N  0.05651766  0.31974436  0.63990476    -0.26350
C585        C  0.03491390  0.31119357  0.64882873    -0.01590
C586        C  0.01608237  0.32333823  0.63651108     0.07020
C587        C  0.02747453  0.33922459  0.62014358     0.05120
H588        H  0.03309450  0.29728367  0.66313256     0.10220
H589        H  0.01867295  0.35184115  0.60731515     0.09060
N590        N  0.13209337  0.65510065  0.65543998    -0.25330
N591        N  0.14981856  0.64315572  0.64337927    -0.33190
C592        C  0.17181111  0.65123462  0.65158401     0.03010
C593        C  0.16775812  0.66897526  0.66953544     0.09030
C594        C  0.14247920  0.67103317  0.67157545    -0.04060
H595        H  0.18945607  0.64463246  0.64494305     0.09700
H596        H  0.13233870  0.68318004  0.68386593     0.10900
Cu597      Cu  0.14462223  0.61617126  0.61612713     0.44170
Cu598      Cu  0.09428630  0.64992680  0.65020658     0.41990
Cu599      Cu  0.08101293  0.60497505  0.60455412     0.43880
N600        N  0.13259660  0.59034022  0.59004349    -0.32720
N601        N  0.10882517  0.58674743  0.58626610    -0.26970
C602        C  0.10573426  0.56939990  0.56884484    -0.03070
C603        C  0.12857176  0.56146286  0.56106624     0.09140
C604        C  0.14541214  0.57509963  0.57486138     0.02940
H605        H  0.08800044  0.56296691  0.56231820     0.10590
H606        H  0.16530077  0.57404510  0.57399523     0.09670
N607        N  0.05380724  0.62352416  0.62345802    -0.34170
N608        N  0.05826459  0.64040001  0.64060375    -0.26350
C609        C  0.03654205  0.64894468  0.64935110    -0.01590
C610        C  0.01783070  0.63668680  0.63694677     0.07020
C611        C  0.02938765  0.62077345  0.62073391     0.05120
H612        H  0.03455513  0.66293153  0.66356839     0.10220
H613        H  0.02073099  0.60809959  0.60787039     0.09060
O614        O  0.78352487  0.50676109  0.50698417    -0.70980
O615        O  0.78343475  0.45352236  0.45366614    -0.71970
O616        O  0.78344595  0.45350450  0.50691109    -0.60580
O617        O  0.78340708  0.50675997  0.45376220    -0.69000
O618        O  0.82425760  0.50606544  0.45425626    -0.68550
O619        O  0.82429584  0.45404871  0.50627468    -0.59800
O620        O  0.82428018  0.45410798  0.45429645    -0.72310
O621        O  0.82436846  0.50604038  0.50618893    -0.71090
Cu622      Cu  0.78189349  0.48013402  0.48033722     1.04560
Cu623      Cu  0.82557769  0.48005732  0.48025456     1.04330
C624        C  0.80427205  0.51477287  0.51487397     0.95210
C625        C  0.80415697  0.44550476  0.44562995     0.94350
C626        C  0.80413861  0.44544674  0.51492411     0.86500
C627        C  0.80409444  0.51475708  0.44569548     0.92770
N628        N  0.82903613  0.30524451  0.30519402    -0.25330
N629        N  0.81109725  0.31709994  0.31700057    -0.33190
C630        C  0.78927425  0.30873287  0.30869268     0.03010
C631        C  0.79375217  0.29091132  0.29096293     0.09030
C632        C  0.81901029  0.28908138  0.28912267    -0.04060
H633        H  0.77149247  0.31517422  0.31512538     0.09700
H634        H  0.82938698  0.27692841  0.27703797     0.10900
Cu635      Cu  0.81584658  0.34422175  0.34401542     0.44170
Cu636      Cu  0.86659848  0.31066894  0.31059939     0.41990
Cu637      Cu  0.87959837  0.35602428  0.35567616     0.43880
N638        N  0.82765424  0.37018450  0.36989648    -0.32720
N639        N  0.85137940  0.37407488  0.37371096    -0.26970
C640        C  0.85416432  0.39148785  0.39112320    -0.03070
C641        C  0.83118406  0.39910703  0.39883048     0.09140
C642        C  0.81458130  0.38524693  0.38501480     0.02940
H643        H  0.87178161  0.39813380  0.39774609     0.10590
H644        H  0.79467555  0.38599092  0.38585174     0.09670
N645        N  0.90698191  0.33724217  0.33705862    -0.34170
N646        N  0.90247248  0.32018792  0.32011179    -0.26350
C647        C  0.92410455  0.31140600  0.31143527    -0.01590
C648        C  0.94288392  0.32367457  0.32366322     0.07020
C649        C  0.93143700  0.33987031  0.33972242     0.05120
H650        H  0.92597730  0.29724573  0.29737297     0.10220
H651        H  0.94019050  0.35263778  0.35242101     0.09060
N652        N  0.82727052  0.65562247  0.30522146    -0.25330
N653        N  0.80953064  0.64367533  0.31719941    -0.33190
C654        C  0.78755475  0.65183515  0.30899849     0.03010
C655        C  0.79164865  0.66963281  0.29114458     0.09030
C656        C  0.81691945  0.67163957  0.28914208    -0.04060
H657        H  0.76989784  0.64524560  0.31557212     0.09700
H658        H  0.82707886  0.68380238  0.27691549     0.10900
Cu659      Cu  0.81467961  0.61658926  0.34431468     0.44170
Cu660      Cu  0.86502993  0.65034976  0.31047862     0.41990
Cu661      Cu  0.87828107  0.60505296  0.35581165     0.43880
N662        N  0.82664837  0.59060025  0.37024176    -0.32720
N663        N  0.85041040  0.58684757  0.37398244    -0.26970
C664        C  0.85344260  0.56941681  0.39132855    -0.03070
C665        C  0.83057581  0.56160706  0.39909361     0.09140
C666        C  0.81378150  0.57539689  0.38536929     0.02940
H667        H  0.87115430  0.56286371  0.39783762     0.10590
H668        H  0.79388952  0.57448379  0.38625706     0.09670
N669        N  0.90548575  0.62371704  0.33706975    -0.34170
N670        N  0.90101013  0.64071538  0.32004991    -0.26350
C671        C  0.92270821  0.64930056  0.31135945    -0.01590
C672        C  0.94143261  0.63694648  0.32366924     0.07020
C673        C  0.92991131  0.62092847  0.33976856     0.05120
H674        H  0.92466685  0.66336785  0.29723084     0.10220
H675        H  0.93859475  0.60814810  0.35252064     0.09060
N676        N  0.82707130  0.30472923  0.65573861    -0.25330
N677        N  0.80936039  0.31670277  0.64372374    -0.33190
C678        C  0.78735510  0.30850227  0.65181026     0.03010
C679        C  0.79137418  0.29064322  0.66963787     0.09030
C680        C  0.81665874  0.28865286  0.67172837    -0.04060
H681        H  0.76972123  0.31508437  0.64515474     0.09700
H682        H  0.82678310  0.27643470  0.68393664     0.10900
Cu683      Cu  0.81461251  0.34385375  0.61664854     0.44170
Cu684      Cu  0.86489396  0.31005087  0.65055452     0.41990
Cu685      Cu  0.87823676  0.35574662  0.60558434     0.43880
N686        N  0.82662037  0.36992291  0.59078275    -0.32720
N687        N  0.85038526  0.37381937  0.58722836    -0.26970
C688        C  0.85343929  0.39121266  0.56984821    -0.03070
C689        C  0.83058540  0.39885568  0.56186072     0.09140
C690        C  0.81377611  0.38500238  0.57549493     0.02940
H691        H  0.87115878  0.39783094  0.56344380     0.10590
H692        H  0.79388680  0.38576740  0.57441371     0.09670
N693        N  0.90541885  0.33690548  0.62420746    -0.34170
N694        N  0.90093528  0.31973977  0.64105586    -0.26350
C695        C  0.92264843  0.31098034  0.64957717    -0.01590
C696        C  0.94138437  0.32339925  0.63734484     0.07020
C697        C  0.92984665  0.33962957  0.62145977     0.05120
H698        H  0.92461354  0.29671512  0.66350559     0.10220
H699        H  0.93852368  0.35247064  0.60877020     0.09060
N700        N  0.82929815  0.65476671  0.65541160    -0.25330
N701        N  0.81138930  0.64294526  0.64360447    -0.33190
C702        C  0.78954807  0.65125592  0.65200184     0.03010
C703        C  0.79397623  0.66900772  0.66979211     0.09030
C704        C  0.81923126  0.67085793  0.67157639    -0.04060
H705        H  0.77178325  0.64483434  0.64557601     0.09700
H706        H  0.82957616  0.68297646  0.68367967     0.10900
Cu707      Cu  0.81618852  0.61601892  0.61639539     0.44170
Cu708      Cu  0.86685906  0.64937010  0.64983594     0.41990
Cu709      Cu  0.87991704  0.60496113  0.60369147     0.43880
N710        N  0.82796063  0.59054402  0.58998099    -0.32720
N711        N  0.85167443  0.58701317  0.58567323    -0.26970
C712        C  0.85442042  0.56982171  0.56802000    -0.03070
C713        C  0.83142616  0.56195080  0.56070173     0.09140
C714        C  0.81485903  0.57545009  0.57497756     0.02940
H715        H  0.87202075  0.56339617  0.56106698     0.10590
H716        H  0.79495752  0.57438910  0.57458068     0.09670
N717        N  0.90726840  0.62326230  0.62275180    -0.34170
N718        N  0.90272902  0.63993454  0.64008840    -0.26350
C719        C  0.92434249  0.64843285  0.64899595    -0.01590
C720        C  0.94314684  0.63638118  0.63651870     0.07020
C721        C  0.93173193  0.62060287  0.62007007     0.05120
H722        H  0.92618536  0.66225813  0.66338397     0.10220
H723        H  0.94051335  0.60809766  0.60709643     0.09060
C724        C  0.25484720  0.22219925  0.25429866     0.05090
C725        C  0.26538006  0.23286924  0.23308034    -0.11060
C726        C  0.25485383  0.25412137  0.22245637     0.02590
C727        C  0.23364597  0.26461449  0.23303985    -0.09590
C728        C  0.22305164  0.25402920  0.25425549     0.05080
C729        C  0.23364310  0.23278362  0.26480662    -0.09010
H730        H  0.28204517  0.22501549  0.22521822     0.10680
H731        H  0.22576949  0.28131630  0.22515431     0.08200
H732        H  0.22576465  0.22487177  0.28148867     0.08050
C733        C  0.80524585  0.42616123  0.42617044    -0.14470
C734        C  0.82726895  0.41814927  0.41797191    -0.29650
H735        H  0.78827103  0.41861298  0.41867377     0.14550
H736        H  0.84399104  0.42601092  0.42576658     0.15120
C737        C  0.80506886  0.42605935  0.53434385    -0.14470
C738        C  0.82697417  0.41791665  0.54266355    -0.29650
H739        H  0.78801131  0.41858885  0.54175093     0.14550
H740        H  0.84379114  0.42570663  0.53497740     0.15120
C741        C  0.80502436  0.53420372  0.42634292    -0.14470
C742        C  0.82693900  0.54242473  0.41814913    -0.29650
H743        H  0.78797058  0.54169447  0.41892936     0.14550
H744        H  0.84375059  0.53464119  0.42587000     0.15120
C745        C  0.80542130  0.53429249  0.53414946    -0.14470
C746        C  0.82745837  0.54284252  0.54165009    -0.29650
H747        H  0.78847577  0.54154502  0.54206689     0.14550
H748        H  0.84414824  0.53533018  0.53338364     0.15120
C749        C  0.99158490  0.63938400  0.63971865    -0.11310
C750        C  0.96933981  0.63922625  0.63952927    -0.12870
C751        C  0.96763347  0.32051615  0.63993555    -0.11310
C752        C  0.98988343  0.32055281  0.63963583    -0.12870
C753        C  0.98989791  0.63937066  0.32093329    -0.11310
C754        C  0.96765897  0.63960620  0.32084512    -0.12870
C755        C  0.18589561  0.27664568  0.27684236    -0.11310
C756        C  0.20232602  0.26592484  0.26614949    -0.12870
C757        C  0.96908345  0.32069964  0.32074359    -0.11310
C758        C  0.99132835  0.32051588  0.32055479    -0.12870
C759        C  0.15402939  0.42576175  0.42574142    -0.14470
C760        C  0.13213141  0.41788168  0.41721223    -0.29650
H761        H  0.17108900  0.41811309  0.41847017     0.14550
H762        H  0.11531521  0.42585395  0.42476203     0.15120
C763        C  0.15360154  0.42561146  0.53385104    -0.14470
C764        C  0.13155547  0.41737842  0.54170875    -0.29650
H765        H  0.17055502  0.41814320  0.54151372     0.14550
H766        H  0.11485235  0.42512749  0.53372382     0.15120
C767        C  0.13165589  0.54169409  0.41783911    -0.14470
C768        C  0.15370480  0.53362545  0.42586793    -0.29650
H769        H  0.11495175  0.53388469  0.42574758     0.14550
H770        H  0.17066005  0.54113841  0.41826840     0.15120
C771        C  0.13213800  0.54227338  0.54197676    -0.14470
C772        C  0.15402500  0.53384648  0.53386329    -0.29650
H773        H  0.11530587  0.53464536  0.53418475     0.14550
H774        H  0.17109592  0.54118765  0.54134510     0.15120
C775        C  0.75682254  0.69375958  0.26670662    -0.11310
C776        C  0.77319977  0.68312760  0.27751028    -0.12870
C777        C  0.68149473  0.77458273  0.27660051    -0.11310
C778        C  0.69227768  0.75803979  0.26608283    -0.12870
C779        C  0.42286256  0.82226276  0.43070784    -0.14470
C780        C  0.41301932  0.80689851  0.41397020    -0.29650
H781        H  0.41626328  0.84124516  0.43140342     0.14550
H782        H  0.41879685  0.78764364  0.41297505     0.15120
C783        C  0.42795407  0.81367793  0.53569213    -0.14470
C784        C  0.41880776  0.83491234  0.54457672    -0.29650
H785        H  0.42114366  0.79599487  0.54243647     0.14550
H786        H  0.42578608  0.85240980  0.53749034     0.15120
C787        C  0.53138123  0.81338005  0.42431084    -0.14470
C788        C  0.54084117  0.83458832  0.41580507    -0.29650
H789        H  0.53773897  0.79568953  0.41709790     0.14550
H790        H  0.53424277  0.85208909  0.42329937     0.15120
C791        C  0.53803381  0.81894947  0.52803420    -0.14470
C792        C  0.54435442  0.80534763  0.54773972    -0.29650
H793        H  0.54772278  0.83626754  0.52484511     0.14550
H794        H  0.53537277  0.78777911  0.55151604     0.15120
C795        C  0.63645913  0.96595251  0.63431000    -0.11310
C796        C  0.63745639  0.98828181  0.63555522    -0.12870
C797        C  0.32044615  0.99265775  0.64068947    -0.11310
C798        C  0.31977207  0.97035032  0.64142804    -0.12870
C799        C  0.63657884  0.99326651  0.32203485    -0.11310
C800        C  0.63752057  0.97098618  0.32066597    -0.12870
C801        C  0.27727761  0.18485486  0.27697480    -0.11310
C802        C  0.26669510  0.20138752  0.26622610    -0.12870
C803        C  0.32179547  0.98892416  0.32372142    -0.11310
C804        C  0.32267888  0.96658957  0.32478059    -0.12870
C805        C  0.41629256  0.12903003  0.41876335    -0.14470
C806        C  0.42608658  0.15057701  0.42615142    -0.29650
H807        H  0.42255743  0.11188724  0.42727558     0.14550
H808        H  0.42031798  0.16791089  0.41771552     0.15120
C809        C  0.42565150  0.15731511  0.53409963    -0.14470
C810        C  0.41676325  0.13565987  0.54287004    -0.29650
H811        H  0.41892502  0.17495873  0.54103959     0.14550
H812        H  0.42394569  0.11836298  0.53547837     0.15120
C813        C  0.53222507  0.13546682  0.42804641    -0.14470
C814        C  0.54511634  0.15098586  0.41369760    -0.29650
H815        H  0.53523488  0.11566600  0.42626372     0.14550
H816        H  0.54238988  0.17088313  0.41519643     0.15120
C817        C  0.53324062  0.15057364  0.53414010    -0.14470
C818        C  0.54076403  0.12898389  0.54379405    -0.29650
H819        H  0.54165898  0.16789012  0.53990878     0.14550
H820        H  0.53229922  0.11185760  0.53748729     0.15120
C821        C  0.42683600  0.42829983  0.82476283    -0.14470
C822        C  0.41330787  0.41465185  0.80916413    -0.29650
H823        H  0.42426396  0.42604551  0.84457393     0.14550
H824        H  0.41563411  0.41661005  0.78925973     0.15120
C825        C  0.53273430  0.42561973  0.80949742    -0.14470
C826        C  0.54216936  0.41783971  0.83107135    -0.29650
H827        H  0.53857187  0.41726984  0.79213780     0.14550
H828        H  0.53577349  0.42620870  0.84824468     0.15120
C829        C  0.42628686  0.53446920  0.80968321    -0.14470
C830        C  0.41881729  0.54415843  0.83128091    -0.29650
H831        H  0.41791990  0.54033591  0.79236925     0.14550
H832        H  0.42722824  0.53776619  0.84840882     0.15120
C833        C  0.53404374  0.53342664  0.80257320    -0.14470
C834        C  0.54365139  0.54156119  0.82415925    -0.29650
H835        H  0.54032695  0.54070560  0.78491534     0.14550
H836        H  0.53696924  0.53375896  0.84146314     0.15120
C837        C  0.68212527  0.68196170  0.18579973    -0.11310
C838        C  0.69270576  0.69285125  0.20219093    -0.12870
C839        C  0.64074315  0.63930742  0.98952462    -0.11310
C840        C  0.64010692  0.63861332  0.96721895    -0.12870
C841        C  0.63485760  0.32284537  0.99338428    -0.11310
C842        C  0.63575632  0.32175407  0.97104880    -0.12870
C843        C  0.32421249  0.63631025  0.99395629    -0.11310
C844        C  0.32319434  0.63760310  0.97164305    -0.12870
C845        C  0.26670099  0.26609572  0.20168731    -0.11310
C846        C  0.27723026  0.27687597  0.18515430    -0.12870
C847        C  0.32010630  0.32235675  0.98875355    -0.11310
C848        C  0.32112258  0.32358805  0.96646392    -0.12870
C849        C  0.41688878  0.41697769  0.12550320    -0.14470
C850        C  0.42631329  0.42548854  0.14672837    -0.29650
H851        H  0.42359207  0.42436618  0.10801243     0.14550
H852        H  0.41987002  0.41837489  0.16441305     0.15120
C853        C  0.53207572  0.42636497  0.13739850    -0.14470
C854        C  0.54698335  0.41453585  0.15319219    -0.29010
H855        H  0.53327883  0.42184046  0.11785440     0.14550
H856        H  0.54618383  0.41839184  0.17294134     0.15120
C857        C  0.42218477  0.52938099  0.14079442    -0.14470
C858        C  0.41561153  0.54883777  0.15463102    -0.29650
H859        H  0.41281229  0.52652062  0.12324242     0.14550
H860        H  0.42420591  0.55225618  0.17246689     0.15120
C861        C  0.53229829  0.53427813  0.14631429    -0.14470
C862        C  0.54148746  0.54309865  0.12508653    -0.29650
H863        H  0.53914862  0.54098279  0.16399900     0.14550
H864        H  0.53445708  0.53605888  0.10759124     0.15120
C865        C  0.75998907  0.26596256  0.26622028    -0.11310
C866        C  0.77571657  0.27712590  0.27729615    -0.12870
C867        C  0.69912223  0.26290155  0.19909022    -0.11310
C868        C  0.68820904  0.27336676  0.18277579    -0.12870
C869        C  0.68725652  0.18328969  0.27428605    -0.11310
C870        C  0.69840701  0.19945263  0.26384515    -0.12870
C871        C  0.26640773  0.69366295  0.75902245    -0.11310
C872        C  0.27704850  0.68318017  0.77567529    -0.12870
C873        C  0.27763818  0.77383813  0.68290550    -0.11310
C874        C  0.26694551  0.75741877  0.69366606    -0.12870
C875        C  0.20261644  0.69306624  0.69397355    -0.11310
C876        C  0.18624589  0.68240692  0.68319005    -0.12870
C877        C  0.26131898  0.26401045  0.75975495    -0.11310
C878        C  0.27207262  0.27460439  0.77609658    -0.12870
C879        C  0.18360323  0.27676311  0.68244000    -0.11310
C880        C  0.19961674  0.26580630  0.69334745    -0.12870
C881        C  0.26388172  0.20169399  0.69383068    -0.11310
C882        C  0.27524634  0.18580402  0.68312246    -0.12870
C883        C  0.68141686  0.27619087  0.77489517    -0.11310
C884        C  0.69208080  0.26558356  0.75829559    -0.12870
C885        C  0.75643755  0.26620474  0.69370852    -0.11310
C886        C  0.77284604  0.27700936  0.68308826    -0.12870
C887        C  0.68247508  0.18429635  0.68281533    -0.11310
C888        C  0.69286671  0.20094286  0.69357107    -0.12870
C889        C  0.27061989  0.77717681  0.27421067    -0.11310
C890        C  0.25972852  0.76091343  0.26365956    -0.12870
C891        C  0.26044549  0.69692673  0.19939687    -0.11310
C892        C  0.27166250  0.68663858  0.18315762    -0.12870
C893        C  0.18327918  0.68241315  0.27709662    -0.11310
C894        C  0.19901010  0.69363341  0.26607653    -0.12870
C895        C  0.75988450  0.69363721  0.69453063    -0.11310
C896        C  0.77586765  0.68269868  0.68353301    -0.12870
C897        C  0.69819163  0.76017494  0.69693900    -0.11310
C898        C  0.68732964  0.77655025  0.68647728    -0.12870
C899        C  0.68429151  0.68266795  0.77430092    -0.11310
C900        C  0.69557462  0.69357952  0.75851871    -0.12870
loop_ 
_geom_bond_atom_site_label_1 
_geom_bond_atom_site_label_2 
_geom_bond_distance 
_geom_bond_site_symmetry_2 
_ccdc_geom_bond_type 
C1            C2   1.400       .  A
C1            C6   1.399       .  A
C1          C897   1.435       .  S
C2            C3   1.400       .  A
C2            H7   1.084       .  S
C3            C4   1.400       .  A
C3          C895   1.437       .  S
C4            C5   1.400       .  A
C4            H8   1.084       .  S
C5            C6   1.399       .  A
C5          C900   1.435       .  S
C6            H9   1.085       .  S
C10          C11   1.400       .  A
C10          C15   1.399       .  A
C10         C891   1.434       .  S
C11          C12   1.400       .  A
C11          H16   1.084       .  S
C12          C13   1.400       .  A
C12         C894   1.437       .  S
C13          C14   1.400       .  A
C13          H17   1.084       .  S
C14          C15   1.399       .  A
C14         C890   1.434       .  S
C15          H18   1.085       .  S
C19          C20   1.403       .  A
C19          C24   1.403       .  A
C19         C885   1.445       .  S
C20          C21   1.404       .  A
C20          H25   1.084       .  S
C21          C22   1.404       .  A
C21         C888   1.446       .  S
C22          C23   1.404       .  A
C22          H26   1.084       .  S
C23          C24   1.403       .  A
C23         C884   1.446       .  S
C24          H27   1.084       .  S
C28          C29   1.400       .  A
C28          C33   1.399       .  A
C28         C881   1.435       .  S
C29          C30   1.401       .  A
C29          H34   1.084       .  S
C30          C31   1.400       .  A
C30         C880   1.438       .  S
C31          C32   1.400       .  A
C31          H35   1.084       .  S
C32          C33   1.399       .  A
C32         C877   1.435       .  S
C33          H36   1.085       .  S
C37          C38   1.403       .  A
C37          C42   1.403       .  A
C37         C875   1.444       .  S
C38          C39   1.403       .  A
C38          H43   1.084       .  S
C39          C40   1.403       .  A
C39         C874   1.444       .  S
C40          C41   1.403       .  A
C40          H44   1.084       .  S
C41          C42   1.403       .  A
C41         C871   1.445       .  S
C42          H45   1.084       .  S
C46          C47   1.399       .  A
C46          C51   1.400       .  A
C46         C870   1.434       .  S
C47          C48   1.399       .  A
C47          H52   1.085       .  S
C48          C49   1.400       .  A
C48         C867   1.434       .  S
C49          C50   1.400       .  A
C49          H53   1.084       .  S
C50          C51   1.400       .  A
C50         C865   1.437       .  S
C51          H54   1.084       .  S
O55         Cu63   1.932       .  S
O55          C65   1.266       .  A
O56         Cu63   1.935       .  S
O56          C66   1.265       .  A
O57         Cu63   2.011       .  S
O57          C67   1.281       .  A
O58         Cu63   2.005       .  S
O58          C68   1.281       .  A
O59         Cu64   2.002       .  S
O59          C68   1.274       .  A
O60         Cu64   2.002       .  S
O60          C67   1.274       .  A
O61         Cu64   2.077       .  S
O61          C66   1.287       .  A
O62         Cu64   2.078       .  S
O62          C65   1.287       .  A
Cu63        Cu64   2.373       .  S
C65         C853   1.470       .  S
C66         C857   1.468       .  S
C67         C861   1.477       .  S
C68         C850   1.475       .  S
N69          N70   1.329       .  A
N69          C73   1.348       .  A
N69         Cu77   2.097       .  S
N70          C71   1.347       .  A
N70         Cu76   2.095       .  S
C71          C72   1.379       .  A
C71          H74   1.082       .  S
C72          C73   1.380       .  A
C72         C846   1.442       .  S
C73          H75   1.082       .  S
Cu76         N79   2.091       .  S
Cu77         N87   2.093       .  S
Cu78         N80   2.026       .  S
Cu78         N86   2.028       .  S
N79          N80   1.319       .  A
N79          C83   1.353       .  A
N80          C81   1.334       .  A
C81          C82   1.370       .  A
C81          H84   1.082       .  S
C82          C83   1.394       .  A
C82         C849   1.468       .  S
C83          H85   1.082       .  S
N86          N87   1.319       .  A
N86          C90   1.338       .  A
N87          C88   1.351       .  A
C88          C89   1.389       .  A
C88          H91   1.081       .  S
C89          C90   1.372       .  A
C89         C847   1.436   1_554  S
C90          H92   1.083       .  S
N93          N94   1.323       .  A
N93          C97   1.346       .  A
N93        Cu101   2.069       .  S
N94          C95   1.341       .  A
N94        Cu100   2.058       .  S
C95          C96   1.375       .  A
C95          H98   1.082       .  S
C96          C97   1.379       .  A
C96         C892   1.430       .  S
C97          H99   1.082       .  S
Cu100       N103   2.056       .  S
Cu101       N111   2.068       .  S
Cu102       N104   2.092       .  S
Cu102       N110   2.092       .  S
N103        N104   1.321       .  A
N103        C107   1.348       .  A
N104        C105   1.342       .  A
C105        C106   1.393       .  A
C105        H108   1.081       .  S
C106        C107   1.380       .  A
C106        C858   1.485       .  S
C107        H109   1.082       .  S
N110        N111   1.324       .  A
N110        C114   1.348       .  A
N111        C112   1.346       .  A
C112        C113   1.378       .  A
C112        H115   1.082       .  S
C113        C114   1.383       .  A
C113        C843   1.440   1_554  S
C114        H116   1.082       .  S
N117        N118   1.324       .  A
N117        C121   1.346       .  A
N117       Cu125   2.072       .  S
N118        C119   1.341       .  A
N118       Cu124   2.059       .  S
C119        C120   1.375       .  A
C119        H122   1.082       .  S
C120        C121   1.379       .  A
C120        C868   1.430       .  S
C121        H123   1.082       .  S
Cu124       N127   2.057       .  S
Cu125       N135   2.070       .  S
Cu126       N128   2.088       .  S
Cu126       N134   2.087       .  S
N127        N128   1.320       .  A
N127        C131   1.349       .  A
N128        C129   1.340       .  A
C129        C130   1.395       .  A
C129        H132   1.080       .  S
C130        C131   1.382       .  A
C130        C854   1.490       .  S
C131        H133   1.082       .  S
N134        N135   1.323       .  A
N134        C138   1.347       .  A
N135        C136   1.346       .  A
C136        C137   1.379       .  A
C136        H139   1.082       .  S
C137        C138   1.383       .  A
C137        C841   1.441   1_554  S
C138        H140   1.082       .  S
N141        N142   1.328       .  A
N141        C145   1.347       .  A
N141       Cu149   2.088       .  S
N142        C143   1.347       .  A
N142       Cu148   2.097       .  S
C143        C144   1.380       .  A
C143        H146   1.082       .  S
C144        C145   1.378       .  A
C144        C837   1.440       .  S
C145        H147   1.082       .  S
Cu148       N151   2.093       .  S
Cu149       N159   2.085       .  S
Cu150       N152   2.032       .  S
Cu150       N158   2.034       .  S
N151        N152   1.319       .  A
N151        C155   1.353       .  A
N152        C153   1.334       .  A
C153        C154   1.371       .  A
C153        H156   1.082       .  S
C154        C155   1.394       .  A
C154        C862   1.471       .  S
C155        H157   1.082       .  S
N158        N159   1.319       .  A
N158        C162   1.339       .  A
N159        C160   1.350       .  A
C160        C161   1.386       .  A
C160        H163   1.081       .  S
C161        C162   1.373       .  A
C161        C839   1.435   1_554  S
C162        H164   1.083       .  S
O165       Cu173   2.060       .  S
O165        C175   1.283       .  A
O166       Cu173   2.059       .  S
O166        C176   1.285       .  A
O167       Cu173   2.015       .  S
O167        C177   1.276       .  A
O168       Cu173   2.015       .  S
O168        C178   1.276       .  A
O169       Cu174   1.997       .  S
O169        C178   1.279       .  A
O170       Cu174   1.997       .  S
O170        C177   1.279       .  A
O171       Cu174   1.956       .  S
O171        C176   1.269       .  A
O172       Cu174   1.952       .  S
O172        C175   1.272       .  A
Cu173      Cu174   2.371       .  S
C175        C833   1.488       .  S
C176        C821   1.471       .  S
C177        C829   1.478       .  S
C178        C825   1.478       .  S
N179        N180   1.323       .  A
N179        C183   1.346       .  A
N179       Cu187   2.069       .  S
N180        C181   1.342       .  A
N180       Cu186   2.063       .  S
C181        C182   1.376       .  A
C181        H184   1.082       .  S
C182        C183   1.379       .  A
C182        C878   1.431       .  S
C183        H185   1.082       .  S
Cu186       N189   2.062       .  S
Cu187       N197   2.068       .  S
Cu188       N190   2.083       .  S
Cu188       N196   2.083       .  S
N189        N190   1.321       .  A
N189        C193   1.347       .  A
N190        C191   1.342       .  A
C191        C192   1.392       .  A
C191        H194   1.080       .  S
C192        C193   1.382       .  A
C192        C822   1.485       .  S
C193        H195   1.082       .  S
N196        N197   1.323       .  A
N196        C200   1.346       .  A
N197        C198   1.345       .  A
C198        C199   1.378       .  A
C198        H201   1.082       .  S
C199        C200   1.382       .  A
C199        C848   1.438       .  S
C200        H202   1.082       .  S
N203        N204   1.329       .  A
N203        C207   1.349       .  A
N203       Cu211   2.100       .  S
N204        C205   1.346       .  A
N204       Cu210   2.091       .  S
C205        C206   1.378       .  A
C205        H208   1.082       .  S
C206        C207   1.381       .  A
C206        C872   1.442       .  S
C207        H209   1.082       .  S
Cu210       N213   2.088       .  S
Cu211       N221   2.097       .  S
Cu212       N214   2.034       .  S
Cu212       N220   2.035       .  S
N213        N214   1.319       .  A
N213        C217   1.352       .  A
N214        C215   1.335       .  A
C215        C216   1.372       .  A
C215        H218   1.082       .  S
C216        C217   1.392       .  A
C216        C830   1.470       .  S
C217        H219   1.081       .  S
N220        N221   1.320       .  A
N220        C224   1.339       .  A
N221        C222   1.352       .  A
C222        C223   1.389       .  A
C222        H225   1.082       .  S
C223        C224   1.372       .  A
C223        C844   1.439       .  S
C224        H226   1.082       .  S
N227        N228   1.329       .  A
N227        C231   1.349       .  A
N227       Cu235   2.100       .  S
N228        C229   1.346       .  A
N228       Cu234   2.093       .  S
C229        C230   1.379       .  A
C229        H232   1.082       .  S
C230        C231   1.381       .  A
C230        C883   1.443       .  S
C231        H233   1.082       .  S
Cu234       N237   2.089       .  S
Cu235       N245   2.097       .  S
Cu236       N238   2.035       .  S
Cu236       N244   2.037       .  S
N237        N238   1.319       .  A
N237        C241   1.353       .  A
N238        C239   1.335       .  A
C239        C240   1.372       .  A
C239        H242   1.082       .  S
C240        C241   1.393       .  A
C240        C826   1.470       .  S
C241        H243   1.081       .  S
N244        N245   1.320       .  A
N244        C248   1.339       .  A
N245        C246   1.352       .  A
C246        C247   1.389       .  A
C246        H249   1.082       .  S
C247        C248   1.373       .  A
C247        C842   1.439       .  S
C248        H250   1.082       .  S
N251        N252   1.326       .  A
N251        C255   1.345       .  A
N251       Cu259   2.070       .  S
N252        C253   1.344       .  A
N252       Cu258   2.080       .  S
C253        C254   1.377       .  A
C253        H256   1.082       .  S
C254        C255   1.376       .  A
C254        C899   1.432       .  S
C255        H257   1.082       .  S
Cu258       N261   2.077       .  S
Cu259       N269   2.068       .  S
Cu260       N262   2.062       .  S
Cu260       N268   2.063       .  S
N261        N262   1.321       .  A
N261        C265   1.354       .  A
N262        C263   1.335       .  A
C263        C264   1.377       .  A
C263        H266   1.082       .  S
C264        C265   1.388       .  A
C264        C834   1.470       .  S
C265        H267   1.081       .  S
N268        N269   1.320       .  A
N268        C272   1.343       .  A
N269        C270   1.346       .  A
C270        C271   1.380       .  A
C270        H273   1.082       .  S
C271        C272   1.379       .  A
C271        C840   1.436       .  S
C272        H274   1.082       .  S
O275       Cu283   2.060       .  S
O275        C285   1.285       .  A
O276       Cu283   2.061       .  S
O276        C286   1.283       .  A
O277       Cu283   2.016       .  S
O277        C287   1.276       .  A
O278       Cu283   2.016       .  S
O278        C288   1.276       .  A
O279       Cu284   1.998       .  S
O279        C288   1.279       .  A
O280       Cu284   1.997       .  S
O280        C287   1.279       .  A
O281       Cu284   1.950       .  S
O281        C286   1.272       .  A
O282       Cu284   1.954       .  S
O282        C285   1.269       .  A
Cu283      Cu284   2.371       .  S
C285        C813   1.470       .  S
C286        C809   1.488       .  S
C287        C817   1.478       .  S
C288        C806   1.479       .  S
N289        N290   1.329       .  A
N289        C293   1.349       .  A
N289       Cu297   2.098       .  S
N290        C291   1.346       .  A
N290       Cu296   2.093       .  S
C291        C292   1.379       .  A
C291        H294   1.082       .  S
C292        C293   1.381       .  A
C292        C801   1.442       .  S
C293        H295   1.082       .  S
Cu296       N299   2.089       .  S
Cu297       N307   2.095       .  S
Cu298       N300   2.036       .  S
Cu298       N306   2.037       .  S
N299        N300   1.319       .  A
N299        C303   1.353       .  A
N300        C301   1.335       .  A
C301        C302   1.372       .  A
C301        H304   1.082       .  S
C302        C303   1.393       .  A
C302        C805   1.471       .  S
C303        H305   1.081       .  S
N306        N307   1.320       .  A
N306        C310   1.339       .  A
N307        C308   1.352       .  A
C308        C309   1.389       .  A
C308        H311   1.082       .  S
C309        C310   1.373       .  A
C309        C803   1.439   1_545  S
C310        H312   1.082       .  S
N313        N314   1.323       .  A
N313        C317   1.345       .  A
N313       Cu321   2.067       .  S
N314        C315   1.342       .  A
N314       Cu320   2.062       .  S
C315        C316   1.376       .  A
C315        H318   1.082       .  S
C316        C317   1.378       .  A
C316        C869   1.431       .  S
C317        H319   1.082       .  S
Cu320       N323   2.061       .  S
Cu321       N331   2.066       .  S
Cu322       N324   2.083       .  S
Cu322       N330   2.083       .  S
N323        N324   1.321       .  A
N323        C327   1.347       .  A
N324        C325   1.342       .  A
C325        C326   1.392       .  A
C325        H328   1.080       .  S
C326        C327   1.382       .  A
C326        C814   1.485       .  S
C327        H329   1.082       .  S
N330        N331   1.323       .  A
N330        C334   1.346       .  A
N331        C332   1.345       .  A
C332        C333   1.377       .  A
C332        H335   1.082       .  S
C333        C334   1.382       .  A
C333        C799   1.437   1_545  S
C334        H336   1.082       .  S
N337        N338   1.326       .  A
N337        C341   1.345       .  A
N337       Cu345   2.071       .  S
N338        C339   1.344       .  A
N338       Cu344   2.079       .  S
C339        C340   1.377       .  A
C339        H342   1.082       .  S
C340        C341   1.376       .  A
C340        C882   1.432       .  S
C341        H343   1.082       .  S
Cu344       N347   2.076       .  S
Cu345       N355   2.068       .  S
Cu346       N348   2.064       .  S
Cu346       N354   2.064       .  S
N347        N348   1.321       .  A
N347        C351   1.353       .  A
N348        C349   1.336       .  A
C349        C350   1.377       .  A
C349        H352   1.083       .  S
C350        C351   1.388       .  A
C350        C810   1.470       .  S
C351        H353   1.081       .  S
N354        N355   1.320       .  A
N354        C358   1.344       .  A
N355        C356   1.347       .  A
C356        C357   1.380       .  A
C356        H359   1.082       .  S
C357        C358   1.379       .  A
C357        C797   1.436   1_545  S
C358        H360   1.082       .  S
N361        N362   1.329       .  A
N361        C365   1.349       .  A
N361       Cu369   2.102       .  S
N362        C363   1.346       .  A
N362       Cu368   2.093       .  S
C363        C364   1.379       .  A
C363        H366   1.082       .  S
C364        C365   1.382       .  A
C364        C887   1.443       .  S
C365        H367   1.082       .  S
Cu368       N371   2.089       .  S
Cu369       N379   2.099       .  S
Cu370       N372   2.035       .  S
Cu370       N378   2.036       .  S
N371        N372   1.319       .  A
N371        C375   1.353       .  A
N372        C373   1.335       .  A
C373        C374   1.372       .  A
C373        H376   1.082       .  S
C374        C375   1.393       .  A
C374        C818   1.470       .  S
C375        H377   1.081       .  S
N378        N379   1.320       .  A
N378        C382   1.339       .  A
N379        C380   1.352       .  A
C380        C381   1.390       .  A
C380        H383   1.082       .  S
C381        C382   1.373       .  A
C381        C796   1.440   1_545  S
C382        H384   1.082       .  S
O385       Cu393   1.940       .  S
O385        C395   1.266       .  A
O386       Cu393   1.939       .  S
O386        C396   1.266       .  A
O387       Cu393   2.009       .  S
O387        C397   1.281       .  A
O388       Cu393   2.006       .  S
O388        C398   1.281       .  A
O389       Cu394   2.001       .  S
O389        C398   1.274       .  A
O390       Cu394   2.001       .  S
O390        C397   1.274       .  A
O391       Cu394   2.076       .  S
O391        C396   1.287       .  A
O392       Cu394   2.076       .  S
O392        C395   1.287       .  A
Cu393      Cu394   2.373       .  S
C395        C791   1.469       .  S
C396        C779   1.471       .  S
C397        C783   1.476       .  S
C398        C787   1.475       .  S
N399        N400   1.324       .  A
N399        C403   1.346       .  A
N399       Cu407   2.071       .  S
N400        C401   1.341       .  A
N400       Cu406   2.061       .  S
C401        C402   1.375       .  A
C401        H404   1.082       .  S
C402        C403   1.379       .  A
C402        C889   1.431       .  S
C403        H405   1.082       .  S
Cu406       N409   2.060       .  S
Cu407       N417   2.070       .  S
Cu408       N410   2.088       .  S
Cu408       N416   2.088       .  S
N409        N410   1.321       .  A
N409        C413   1.349       .  A
N410        C411   1.341       .  A
C411        C412   1.393       .  A
C411        H414   1.081       .  S
C412        C413   1.382       .  A
C412        C780   1.488       .  S
C413        H415   1.082       .  S
N416        N417   1.323       .  A
N416        C420   1.347       .  A
N417        C418   1.346       .  A
C418        C419   1.378       .  A
C418        H421   1.082       .  S
C419        C420   1.383       .  A
C419        C804   1.440       .  S
C420        H422   1.082       .  S
N423        N424   1.329       .  A
N423        C427   1.348       .  A
N423       Cu431   2.095       .  S
N424        C425   1.346       .  A
N424       Cu430   2.094       .  S
C425        C426   1.379       .  A
C425        H428   1.082       .  S
C426        C427   1.379       .  A
C426        C777   1.441       .  S
C427        H429   1.082       .  S
Cu430       N433   2.090       .  S
Cu431       N441   2.091       .  S
Cu432       N434   2.025       .  S
Cu432       N440   2.027       .  S
N433        N434   1.319       .  A
N433        C437   1.353       .  A
N434        C435   1.334       .  A
C435        C436   1.370       .  A
C435        H438   1.082       .  S
C436        C437   1.394       .  A
C436        C788   1.468       .  S
C437        H439   1.082       .  S
N440        N441   1.319       .  A
N440        C444   1.338       .  A
N441        C442   1.351       .  A
C442        C443   1.388       .  A
C442        H445   1.081       .  S
C443        C444   1.371       .  A
C443        C800   1.436       .  S
C444        H446   1.082       .  S
N447        N448   1.328       .  A
N447        C451   1.347       .  A
N447       Cu455   2.090       .  S
N448        C449   1.347       .  A
N448       Cu454   2.096       .  S
C449        C450   1.380       .  A
C449        H452   1.082       .  S
C450        C451   1.379       .  A
C450        C873   1.441       .  S
C451        H453   1.082       .  S
Cu454       N457   2.093       .  S
Cu455       N465   2.087       .  S
Cu456       N458   2.031       .  S
Cu456       N464   2.033       .  S
N457        N458   1.319       .  A
N457        C461   1.353       .  A
N458        C459   1.334       .  A
C459        C460   1.371       .  A
C459        H462   1.082       .  S
C460        C461   1.394       .  A
C460        C784   1.470       .  S
C461        H463   1.082       .  S
N464        N465   1.319       .  A
N464        C468   1.339       .  A
N465        C466   1.350       .  A
C466        C467   1.387       .  A
C466        H469   1.081       .  S
C467        C468   1.373       .  A
C467        C798   1.435       .  S
C468        H470   1.083       .  S
N471        N472   1.323       .  A
N471        C475   1.346       .  A
N471       Cu479   2.071       .  S
N472        C473   1.341       .  A
N472       Cu478   2.060       .  S
C473        C474   1.375       .  A
C473        H476   1.082       .  S
C474        C475   1.379       .  A
C474        C898   1.431       .  S
C475        H477   1.082       .  S
Cu478       N481   2.059       .  S
Cu479       N489   2.070       .  S
Cu480       N482   2.093       .  S
Cu480       N488   2.092       .  S
N481        N482   1.321       .  A
N481        C485   1.348       .  A
N482        C483   1.343       .  A
C483        C484   1.392       .  A
C483        H486   1.081       .  S
C484        C485   1.381       .  A
C484        C792   1.486       .  S
C485        H487   1.082       .  S
N488        N489   1.324       .  A
N488        C492   1.348       .  A
N489        C490   1.346       .  A
C490        C491   1.378       .  A
C490        H493   1.082       .  S
C491        C492   1.384       .  A
C491        C795   1.441       .  S
C492        H494   1.082       .  S
C495        C496   1.402       .  A
C495        C500   1.403       .  A
C495        C775   1.443       .  S
C496        C497   1.402       .  A
C496        H501   1.084       .  S
C497        C498   1.403       .  A
C497        C838   1.443       .  S
C498        C499   1.403       .  A
C498        H502   1.084       .  S
C499        C500   1.403       .  A
C499        C778   1.443       .  S
C500        H503   1.084       .  S
O504       Cu512   2.035       .  S
O504        C514   1.280       .  A
O505       Cu512   2.035       .  S
O505        C515   1.280       .  A
O506       Cu512   2.032       .  S
O506        C516   1.279       .  A
O507       Cu512   2.032       .  S
O507        C517   1.279       .  A
O508       Cu513   1.987       .  S
O508        C517   1.277       .  A
O509       Cu513   1.987       .  S
O509        C516   1.277       .  A
O510       Cu513   1.981       .  S
O510        C515   1.276       .  A
O511       Cu513   1.981       .  S
O511        C514   1.276       .  A
Cu512      Cu513   2.370       .  S
C514        C763   1.482       .  S
C515        C768   1.481       .  S
C516        C772   1.482       .  S
C517        C759   1.482       .  S
N518        N519   1.327       .  A
N518        C522   1.348       .  A
N518       Cu526   2.090       .  S
N519        C520   1.346       .  A
N519       Cu525   2.088       .  S
C520        C521   1.379       .  A
C520        H523   1.082       .  S
C521        C522   1.380       .  A
C521        C755   1.441       .  S
C522        H524   1.082       .  S
Cu525       N528   2.086       .  S
Cu526       N536   2.087       .  S
Cu527       N529   2.053       .  S
Cu527       N535   2.054       .  S
N528        N529   1.321       .  A
N528        C532   1.352       .  A
N529        C530   1.337       .  A
C530        C531   1.376       .  A
C530        H533   1.083       .  S
C531        C532   1.390       .  A
C531        C760   1.473       .  S
C532        H534   1.082       .  S
N535        N536   1.321       .  A
N535        C539   1.342       .  A
N536        C537   1.350       .  A
C537        C538   1.385       .  A
C537        H540   1.081       .  S
C538        C539   1.376       .  A
C538        C758   1.439   1_455  S
C539        H541   1.082       .  S
N542        N543   1.326       .  A
N542        C546   1.345       .  A
N542       Cu550   2.079       .  S
N543        C544   1.345       .  A
N543       Cu549   2.081       .  S
C544        C545   1.377       .  A
C544        H547   1.082       .  S
C545        C546   1.377       .  A
C545        C893   1.434       .  S
C546        H548   1.082       .  S
Cu549       N552   2.079       .  S
Cu550       N560   2.078       .  S
Cu551       N553   2.058       .  S
Cu551       N559   2.058       .  S
N552        N553   1.321       .  A
N552        C556   1.351       .  A
N553        C554   1.338       .  A
C554        C555   1.376       .  A
C554        H557   1.082       .  S
C555        C556   1.389       .  A
C555        C767   1.471       .  S
C556        H558   1.082       .  S
N559        N560   1.321       .  A
N559        C563   1.342       .  A
N560        C561   1.349       .  A
C561        C562   1.384       .  A
C561        H564   1.081       .  S
C562        C563   1.378       .  A
C562        C753   1.438   1_455  S
C563        H565   1.082       .  S
N566        N567   1.327       .  A
N566        C570   1.346       .  A
N566       Cu574   2.081       .  S
N567        C568   1.345       .  A
N567       Cu573   2.081       .  S
C568        C569   1.378       .  A
C568        H571   1.082       .  S
C569        C570   1.378       .  A
C569        C879   1.435       .  S
C570        H572   1.082       .  S
Cu573       N576   2.080       .  S
Cu574       N584   2.080       .  S
Cu575       N577   2.059       .  S
Cu575       N583   2.060       .  S
N576        N577   1.321       .  A
N576        C580   1.351       .  A
N577        C578   1.338       .  A
C578        C579   1.377       .  A
C578        H581   1.082       .  S
C579        C580   1.389       .  A
C579        C764   1.472       .  S
C580        H582   1.082       .  S
N583        N584   1.321       .  A
N583        C587   1.343       .  A
N584        C585   1.349       .  A
C585        C586   1.384       .  A
C585        H588   1.081       .  S
C586        C587   1.378       .  A
C586        C752   1.439   1_455  S
C587        H589   1.082       .  S
N590        N591   1.327       .  A
N590        C594   1.348       .  A
N590       Cu598   2.090       .  S
N591        C592   1.346       .  A
N591       Cu597   2.089       .  S
C592        C593   1.379       .  A
C592        H595   1.082       .  S
C593        C594   1.380       .  A
C593        C876   1.441       .  S
C594        H596   1.082       .  S
Cu597       N600   2.086       .  S
Cu598       N608   2.087       .  S
Cu599       N601   2.052       .  S
Cu599       N607   2.053       .  S
N600        N601   1.321       .  A
N600        C604   1.352       .  A
N601        C602   1.337       .  A
C602        C603   1.376       .  A
C602        H605   1.083       .  S
C603        C604   1.390       .  A
C603        C771   1.473       .  S
C604        H606   1.082       .  S
N607        N608   1.321       .  A
N607        C611   1.342       .  A
N608        C609   1.350       .  A
C609        C610   1.385       .  A
C609        H612   1.081       .  S
C610        C611   1.376       .  A
C610        C749   1.439   1_455  S
C611        H613   1.082       .  S
O614       Cu622   2.035       .  S
O614        C624   1.280       .  A
O615       Cu622   2.035       .  S
O615        C625   1.280       .  A
O616       Cu622   2.032       .  S
O616        C626   1.279       .  A
O617       Cu622   2.032       .  S
O617        C627   1.279       .  A
O618       Cu623   1.986       .  S
O618        C627   1.277       .  A
O619       Cu623   1.987       .  S
O619        C626   1.277       .  A
O620       Cu623   1.982       .  S
O620        C625   1.276       .  A
O621       Cu623   1.982       .  S
O621        C624   1.276       .  A
Cu622      Cu623   2.370       .  S
C624        C745   1.482       .  S
C625        C733   1.482       .  S
C626        C737   1.482       .  S
C627        C741   1.482       .  S
N628        N629   1.327       .  A
N628        C632   1.346       .  A
N628       Cu636   2.080       .  S
N629        C630   1.345       .  A
N629       Cu635   2.082       .  S
C630        C631   1.378       .  A
C630        H633   1.082       .  S
C631        C632   1.377       .  A
C631        C866   1.435       .  S
C632        H634   1.082       .  S
Cu635       N638   2.080       .  S
Cu636       N646   2.079       .  S
Cu637       N639   2.058       .  S
Cu637       N645   2.059       .  S
N638        N639   1.321       .  A
N638        C642   1.352       .  A
N639        C640   1.338       .  A
C640        C641   1.376       .  A
C640        H643   1.082       .  S
C641        C642   1.389       .  A
C641        C734   1.472       .  S
C642        H644   1.082       .  S
N645        N646   1.321       .  A
N645        C649   1.343       .  A
N646        C647   1.349       .  A
C647        C648   1.384       .  A
C647        H650   1.081       .  S
C648        C649   1.378       .  A
C648        C757   1.439       .  S
C649        H651   1.082       .  S
N652        N653   1.327       .  A
N652        C656   1.347       .  A
N652       Cu660   2.088       .  S
N653        C654   1.346       .  A
N653       Cu659   2.087       .  S
C654        C655   1.379       .  A
C654        H657   1.082       .  S
C655        C656   1.380       .  A
C655        C776   1.440       .  S
C656        H658   1.082       .  S
Cu659       N662   2.085       .  S
Cu660       N670   2.085       .  S
Cu661       N663   2.053       .  S
Cu661       N669   2.054       .  S
N662        N663   1.321       .  A
N662        C666   1.352       .  A
N663        C664   1.337       .  A
C664        C665   1.376       .  A
C664        H667   1.083       .  S
C665        C666   1.390       .  A
C665        C742   1.473       .  S
C666        H668   1.082       .  S
N669        N670   1.321       .  A
N669        C673   1.342       .  A
N670        C671   1.350       .  A
C671        C672   1.385       .  A
C671        H674   1.081       .  S
C672        C673   1.376       .  A
C672        C754   1.438       .  S
C673        H675   1.082       .  S
N676        N677   1.327       .  A
N676        C680   1.348       .  A
N676       Cu684   2.091       .  S
N677        C678   1.346       .  A
N677       Cu683   2.089       .  S
C678        C679   1.379       .  A
C678        H681   1.082       .  S
C679        C680   1.381       .  A
C679        C886   1.442       .  S
C680        H682   1.082       .  S
Cu683       N686   2.087       .  S
Cu684       N694   2.089       .  S
Cu685       N687   2.053       .  S
Cu685       N693   2.054       .  S
N686        N687   1.321       .  A
N686        C690   1.352       .  A
N687        C688   1.338       .  A
C688        C689   1.376       .  A
C688        H691   1.083       .  S
C689        C690   1.390       .  A
C689        C738   1.473       .  S
C690        H692   1.082       .  S
N693        N694   1.321       .  A
N693        C697   1.342       .  A
N694        C695   1.350       .  A
C695        C696   1.385       .  A
C695        H698   1.081       .  S
C696        C697   1.376       .  A
C696        C751   1.439       .  S
C697        H699   1.082       .  S
N700        N701   1.327       .  A
N700        C704   1.346       .  A
N700       Cu708   2.080       .  S
N701        C702   1.345       .  A
N701       Cu707   2.082       .  S
C702        C703   1.378       .  A
C702        H705   1.082       .  S
C703        C704   1.378       .  A
C703        C896   1.435       .  S
C704        H706   1.082       .  S
Cu707       N710   2.080       .  S
Cu708       N718   2.078       .  S
Cu709       N711   2.059       .  S
Cu709       N717   2.060       .  S
N710        N711   1.321       .  A
N710        C714   1.352       .  A
N711        C712   1.338       .  A
C712        C713   1.377       .  A
C712        H715   1.082       .  S
C713        C714   1.389       .  A
C713        C746   1.472       .  S
C714        H716   1.082       .  S
N717        N718   1.321       .  A
N717        C721   1.343       .  A
N718        C719   1.349       .  A
C719        C720   1.384       .  A
C719        H722   1.081       .  S
C720        C721   1.378       .  A
C720        C750   1.439       .  S
C721        H723   1.082       .  S
C724        C725   1.403       .  A
C724        C729   1.403       .  A
C724        C802   1.445       .  S
C725        C726   1.403       .  A
C725        H730   1.084       .  S
C726        C727   1.403       .  A
C726        C845   1.445       .  S
C727        C728   1.403       .  A
C727        H731   1.084       .  S
C728        C729   1.403       .  A
C728        C756   1.444       .  S
C729        H732   1.084       .  S
C733        C734   1.345       .  D
C733        H735   1.086       .  S
C734        H736   1.087       .  S
C737        C738   1.344       .  D
C737        H739   1.086       .  S
C738        H740   1.087       .  S
C741        C742   1.344       .  D
C741        H743   1.086       .  S
C742        H744   1.087       .  S
C745        C746   1.345       .  D
C745        H747   1.086       .  S
C746        H748   1.087       .  S
C749        C750   1.207       .  T
C751        C752   1.207       .  T
C753        C754   1.207       .  T
C755        C756   1.208       .  T
C757        C758   1.207       .  T
C759        C760   1.344       .  D
C759        H761   1.086       .  S
C760        H762   1.087       .  S
C763        C764   1.345       .  D
C763        H765   1.086       .  S
C764        H766   1.087       .  S
C767        C768   1.345       .  D
C767        H769   1.087       .  S
C768        H770   1.086       .  S
C771        C772   1.344       .  D
C771        H773   1.087       .  S
C772        H774   1.086       .  S
C775        C776   1.208       .  T
C777        C778   1.208       .  T
C779        C780   1.338       .  D
C779        H781   1.085       .  S
C780        H782   1.086       .  S
C783        C784   1.337       .  D
C783        H785   1.087       .  S
C784        H786   1.087       .  S
C787        C788   1.336       .  D
C787        H789   1.087       .  S
C788        H790   1.087       .  S
C791        C792   1.337       .  D
C791        H793   1.087       .  S
C792        H794   1.086       .  S
C795        C796   1.208       .  T
C797        C798   1.205       .  T
C799        C800   1.206       .  T
C801        C802   1.209       .  T
C803        C804   1.208       .  T
C805        C806   1.340       .  D
C805        H807   1.087       .  S
C806        H808   1.086       .  S
C809        C810   1.351       .  D
C809        H811   1.086       .  S
C810        H812   1.087       .  S
C813        C814   1.338       .  D
C813        H815   1.085       .  S
C814        H816   1.087       .  S
C817        C818   1.340       .  D
C817        H819   1.086       .  S
C818        H820   1.087       .  S
C821        C822   1.339       .  D
C821        H823   1.085       .  S
C822        H824   1.087       .  S
C825        C826   1.340       .  D
C825        H827   1.086       .  S
C826        H828   1.087       .  S
C829        C830   1.340       .  D
C829        H831   1.086       .  S
C830        H832   1.087       .  S
C833        C834   1.350       .  D
C833        H835   1.086       .  S
C834        H836   1.087       .  S
C837        C838   1.208       .  T
C839        C840   1.205       .  T
C841        C842   1.208       .  T
C843        C844   1.208       .  T
C845        C846   1.209       .  T
C847        C848   1.206       .  T
C849        C850   1.336       .  D
C849        H851   1.087       .  S
C850        H852   1.087       .  S
C853        C854   1.337       .  D
C853        H855   1.084       .  S
C854        H856   1.087       .  S
C857        C858   1.336       .  D
C857        H859   1.087       .  S
C858        H860   1.086       .  S
C861        C862   1.337       .  D
C861        H863   1.087       .  S
C862        H864   1.087       .  S
C865        C866   1.204       .  T
C867        C868   1.202       .  T
C869        C870   1.202       .  T
C871        C872   1.209       .  T
C873        C874   1.208       .  T
C875        C876   1.209       .  T
C877        C878   1.203       .  T
C879        C880   1.205       .  T
C881        C882   1.203       .  T
C883        C884   1.210       .  T
C885        C886   1.209       .  T
C887        C888   1.210       .  T
C889        C890   1.202       .  T
C891        C892   1.202       .  T
C893        C894   1.204       .  T
C895        C896   1.204       .  T
C897        C898   1.203       .  T
C899        C900   1.203       .  T
