geometry optimzed in LAMMPS
_audit_creation_date              2020-12-01 
_audit_creation_method            'lammps2cif' 
_symmetry_space_group_name_H-M    'P1' 
_symmetry_Int_Tables_number       1 
_symmetry_cell_setting            triclinic 
loop_ 
_symmetry_equiv_pos_as_xyz 
  x,y,z 
_cell_length_a                    37.94845229 
_cell_length_b                    38.21124321250007 
_cell_length_c                    38.306855214435686 
_cell_angle_alpha                 90.32956565129946 
_cell_angle_beta                  90.85179685205512 
_cell_angle_gamma                 90.2061122687422 
loop_ 
_atom_site_label 
_atom_site_type_symbol 
_atom_site_fract_x 
_atom_site_fract_y 
_atom_site_fract_z 
_atom_site_charge 
C1          C  0.76239150  0.71130627  0.71893940     0.79800
N2          N  0.74859183  0.74220790  0.70794798    -0.78500
C3          C  0.72117393  0.75713394  0.72497545     0.82300
N4          N  0.70710531  0.74044403  0.75281404    -0.78400
C5          C  0.72082105  0.70970204  0.76439167     0.82400
N6          N  0.74868107  0.69572512  0.74748658    -0.80200
C7          C  0.17531184  0.72617270  0.13031519     0.79800
N8          N  0.18941393  0.75557072  0.14520648    -0.78500
C9          C  0.17463810  0.77068909  0.17367497     0.82300
N10         N  0.14551438  0.75551137  0.18748031    -0.78400
C11         C  0.13121661  0.72589492  0.17333479     0.82400
N12         N  0.14611255  0.71156143  0.14453145    -0.80200
C13         C  0.76976362  0.17727110  0.72576761     0.79800
N14         N  0.75328042  0.14821487  0.71251006    -0.78500
C15         C  0.72571673  0.13331870  0.72946200     0.82300
N16         N  0.71497439  0.14802941  0.75987972    -0.78400
C17         C  0.73076494  0.17722202  0.77326668     0.82400
N18         N  0.75786690  0.19190413  0.75576351    -0.80200
C19         C  0.17050017  0.13289464  0.71482670     0.79800
N20         N  0.14304267  0.14806798  0.69738045    -0.78500
C21         C  0.12632819  0.17631057  0.71118357     0.82300
N22         N  0.13693342  0.18882155  0.74297756    -0.78400
C23         C  0.16402849  0.17376564  0.76096234     0.82400
N24         N  0.18088422  0.14604774  0.74642654    -0.80200
C25         C  0.17140488  0.76502253  0.71550989     0.79800
N26         N  0.14240197  0.75004604  0.70046456    -0.78500
C27         C  0.12851201  0.71980900  0.71310664     0.82300
N28         N  0.14493384  0.70412699  0.74082744    -0.78400
C29         C  0.17393601  0.71904591  0.75639257     0.82400
N30         N  0.18658676  0.74967879  0.74372881    -0.80200
C31         C  0.71012889  0.17048016  0.12935112     0.79800
N32         N  0.69576799  0.14356656  0.14757380    -0.78500
C33         C  0.71246284  0.13055884  0.17644913     0.82300
N34         N  0.74382667  0.14491694  0.18685279    -0.78400
C35         C  0.75845120  0.17197582  0.16920336     0.82400
N36         N  0.74108226  0.18478609  0.14077088    -0.80200
O37         O  0.47291941  0.41563005  0.01611197    -0.73300
O38         O  0.39400215  0.48393611  0.02014109    -0.74300
O39         O  0.46822839  0.49013498  0.01706333    -0.62900
O40         O  0.39871571  0.41117968  0.01973783    -0.71400
O41         O  0.40149259  0.41075735  0.07769906    -0.70900
O42         O  0.47316913  0.48927459  0.07488607    -0.62200
O43         O  0.39749751  0.48534192  0.07805545    -0.74700
O44         O  0.47683928  0.41421489  0.07392283    -0.73500
Cu45       Cu  0.43354754  0.45026279  0.01636884     1.04600
Cu46       Cu  0.43752715  0.44995750  0.07828237     1.04300
C47         C  0.48659249  0.40310998  0.04399897     0.92900
C48         C  0.38272344  0.49491517  0.04939739     0.92000
C49         C  0.48159003  0.50227899  0.04546860     0.84100
C50         C  0.38855928  0.39902379  0.04891060     0.90400
C51         C  0.24997757  0.24091049  0.02166438     0.02700
C52         C  0.26914335  0.26792794  0.03830847    -0.13400
C53         C  0.28680467  0.29282498  0.01855429     0.00200
C54         C  0.28577321  0.29013971  0.98217351    -0.12000
C55         C  0.26867395  0.26215317  0.96456296     0.02700
C56         C  0.25011281  0.23771771  0.98494727    -0.11400
H57         H  0.26956927  0.27001677  0.06655038     0.08300
H58         H  0.29838877  0.31086687  0.96794648     0.05800
H59         H  0.23617371  0.21602801  0.97280389     0.05700
C60         C  0.24048851  0.64627460  0.02043714     0.02700
C61         C  0.24408145  0.65088989  0.98398543    -0.13400
C62         C  0.26201527  0.62562875  0.96385157     0.00200
C63         C  0.27514106  0.59572306  0.98110786    -0.12000
C64         C  0.27412932  0.59226721  0.01736396     0.02700
C65         C  0.25657792  0.61753088  0.03688588    -0.11400
H66         H  0.23361228  0.67421607  0.97180504     0.08300
H67         H  0.28767575  0.57504421  0.96654611     0.05800
H68         H  0.25567583  0.61501648  0.06505065     0.05700
C69         C  0.63346321  0.25116455  0.02565976     0.02700
C70         C  0.61231909  0.27799991  0.03964123    -0.13400
C71         C  0.59731542  0.30328273  0.01769206     0.00200
C72         C  0.60526396  0.30275619  0.98223976    -0.12000
C73         C  0.62268461  0.27432943  0.96678985     0.02700
C74         C  0.63773860  0.24894835  0.98905333    -0.11400
H75         H  0.60721810  0.27897541  0.06736821     0.08300
H76         H  0.59548891  0.32408952  0.96641413     0.05800
H77         H  0.65196097  0.22703683  0.97819722     0.05700
C78         C  0.63657513  0.64453217  0.02425307     0.02700
C79         C  0.60803178  0.62693823  0.03949662    -0.13400
C80         C  0.58231584  0.61055653  0.01843979     0.00200
C81         C  0.58548916  0.61181422  0.98219822    -0.12000
C82         C  0.61562304  0.62577378  0.96623820     0.02700
C83         C  0.64067299  0.64336310  0.98768921    -0.11400
H84         H  0.60580723  0.62612225  0.06765287     0.08300
H85         H  0.56460292  0.60007556  0.96660140     0.05800
H86         H  0.66392798  0.65501508  0.97652937     0.05700
O87         O  0.40356726  0.40704599  0.86891107    -0.73300
O88         O  0.48643893  0.47145453  0.87038502    -0.74300
O89         O  0.41247587  0.48042138  0.87236830    -0.62900
O90         O  0.47671744  0.39836698  0.86738363    -0.71400
O91         O  0.47721643  0.40133868  0.80952933    -0.70900
O92         O  0.40834971  0.48302179  0.81463872    -0.62200
O93         O  0.48368049  0.47620510  0.81266307    -0.74700
O94         O  0.40219206  0.40744039  0.81102508    -0.73500
Cu95       Cu  0.44488732  0.43937165  0.87158476     1.04600
Cu96       Cu  0.44278353  0.44218323  0.80975439     1.04300
C97         C  0.39042709  0.39607773  0.83997320     0.92900
C98         C  0.49808191  0.48418197  0.84205045     0.92000
C99         C  0.39936624  0.49418531  0.84483156     0.84100
C100        C  0.48700277  0.38665236  0.83803245     0.90400
C101        C  0.24254395  0.24719783  0.86812224     0.02700
C102        C  0.26662323  0.26988991  0.85213419    -0.13400
C103        C  0.29258052  0.28687741  0.87212668     0.00200
C104        C  0.29600867  0.27914879  0.90757318    -0.12000
C105        C  0.26973438  0.26036284  0.92525018     0.02700
C106        C  0.24349136  0.24324296  0.90476826    -0.11400
H107        H  0.26462740  0.27493432  0.82437203     0.08300
H108        H  0.31836999  0.29040793  0.92144218     0.05800
H109        H  0.22310347  0.22791670  0.91687767     0.05700
C110        C  0.25093110  0.64421690  0.86536696     0.02700
C111        C  0.24566996  0.64661149  0.90188913    -0.13400
C112        C  0.26883182  0.62937854  0.92535895     0.00200
C113        C  0.29851275  0.61255113  0.91141380    -0.12000
C114        C  0.30177106  0.60642782  0.87562798     0.02700
C115        C  0.27807184  0.62265394  0.85263564    -0.11400
H116        H  0.22361663  0.66138147  0.91169754     0.08300
H117        H  0.31857789  0.60170098  0.92852547     0.05800
H118        H  0.28041789  0.61824111  0.82480382     0.05700
C119        C  0.64731417  0.25293323  0.87196561     0.02700
C120        C  0.64850197  0.25363804  0.90881138    -0.13400
C121        C  0.62202702  0.27096955  0.92763952     0.00200
C122        C  0.59394042  0.28616125  0.90861558    -0.12000
C123        C  0.59323665  0.28721288  0.87209770     0.02700
C124        C  0.61977408  0.26992636  0.85384202    -0.11400
H125        H  0.67038337  0.24143141  0.92241889     0.08300
H126        H  0.57215759  0.29793974  0.92216419     0.05800
H127        H  0.61893107  0.26939314  0.82555647     0.05700
C128        C  0.64329580  0.63552098  0.87039447     0.02700
C129        C  0.62390126  0.60780968  0.85514076    -0.13400
C130        C  0.60482458  0.58484112  0.87575098     0.00200
C131        C  0.60428754  0.59019330  0.91180836    -0.12000
C132        C  0.62075707  0.61946356  0.92783270     0.02700
C133        C  0.64131235  0.64161320  0.90674768    -0.11400
H134        H  0.62423414  0.60367791  0.82711626     0.08300
H135        H  0.59032026  0.57114448  0.92710973     0.05800
H136        H  0.65552667  0.66352571  0.91818372     0.05700
O137        O  0.42220591  0.07815570  0.41282308    -0.73300
O138        O  0.48311224  0.07631633  0.50007148    -0.74300
O139        O  0.49582507  0.07815359  0.42665927    -0.62900
O140        O  0.40869555  0.07604964  0.48592646    -0.71400
O141        O  0.40763833  0.01809414  0.48168087    -0.70900
O142        O  0.49719068  0.02007090  0.42812698    -0.62200
O143        O  0.48030642  0.01826598  0.49981447    -0.74700
O144        O  0.42486439  0.02016836  0.41027113    -0.73500
Cu145      Cu  0.45247397  0.07930220  0.45654182     1.04600
Cu146      Cu  0.45253366  0.01720793  0.45498019     1.04300
C147        C  0.41428029  0.04923584  0.39767277     0.92900
C148        C  0.49098911  0.04688259  0.51380257     0.92000
C149        C  0.51002393  0.04915019  0.41798351     0.84100
C150        C  0.39399787  0.04663319  0.49234743     0.90400
C151        C  0.26455356  0.02809915  0.25062854     0.02700
C152        C  0.29395852  0.04221831  0.26867740    -0.13400
C153        C  0.31904862  0.02061956  0.28439562     0.00200
C154        C  0.31433645  0.98442635  0.28237998    -0.12000
C155        C  0.28357933  0.96911790  0.26774721     0.02700
C156        C  0.25920919  0.99134438  0.25053044    -0.11400
H157        H  0.29737682  0.07034619  0.27050879     0.08300
H158        H  0.33451043  0.96823304  0.29401722     0.05800
H159        H  0.23607494  0.98042595  0.23766289     0.05700
C160        C  0.64070349  0.02333707  0.25685229     0.02700
C161        C  0.62341755  0.03804860  0.28562828    -0.13400
C162        C  0.60592067  0.01692255  0.30938210     0.00200
C163        C  0.60647313  0.98068251  0.30481276    -0.12000
C164        C  0.62072836  0.96479735  0.27480469     0.02700
C165        C  0.63872793  0.98664520  0.25104698    -0.11400
H166        H  0.62375238  0.06615376  0.28967167     0.08300
H167        H  0.59489352  0.96507537  0.32509591     0.05800
H168        H  0.65106313  0.97553566  0.22827282     0.05700
C169        C  0.24717927  0.02554010  0.64035532     0.02700
C170        C  0.26513101  0.03967351  0.61179358    -0.13400
C171        C  0.28511724  0.01817089  0.59012247     0.00200
C172        C  0.28564520  0.98220974  0.59621144    -0.12000
C173        C  0.27037394  0.96738644  0.62601058     0.02700
C174        C  0.25032919  0.98942912  0.64786097    -0.11400
H175        H  0.26391035  0.06752231  0.60673922     0.08300
H176        H  0.29946498  0.96594091  0.57777529     0.05800
H177        H  0.23798992  0.97902352  0.67090825     0.05700
C178        C  0.64668809  0.02317035  0.65694362     0.02700
C179        C  0.65280188  0.98662933  0.65463264    -0.13400
C180        C  0.62925437  0.96478881  0.63531178     0.00200
C181        C  0.59931370  0.98033950  0.61978805    -0.12000
C182        C  0.59445622  0.01650640  0.61952662     0.02700
C183        C  0.61772580  0.03773309  0.63885115    -0.11400
H184        H  0.67572103  0.97559243  0.66753725     0.08300
H185        H  0.57959963  0.96437901  0.60658156     0.05800
H186        H  0.61351068  0.06576444  0.63954783     0.05700
O187        O  0.40915055  0.87506455  0.42541190    -0.73300
O188        O  0.49555662  0.87249495  0.48621435    -0.74300
O189        O  0.48248730  0.87247827  0.41348961    -0.62900
O190        O  0.42211054  0.87456747  0.49858483    -0.71400
O191        O  0.41785729  0.81664479  0.49752466    -0.70900
O192        O  0.48255424  0.81439515  0.41446449    -0.62200
O193        O  0.49266885  0.81451824  0.48877888    -0.74700
O194        O  0.40796054  0.81702031  0.42291495    -0.73500
Cu195      Cu  0.45237249  0.87556332  0.45597025     1.04600
Cu196      Cu  0.45016482  0.81350220  0.45594008     1.04300
C197        C  0.39518954  0.84669079  0.41404378     0.92900
C198        C  0.50760471  0.84345246  0.49740963     0.92000
C199        C  0.49245987  0.84320606  0.40085298     0.84100
C200        C  0.40999726  0.84615070  0.51124162     0.90400
C201        C  0.25365354  0.87291018  0.25623729     0.02700
C202        C  0.25691432  0.90930616  0.25022165    -0.02400
C203        C  0.27742458  0.93050857  0.27311892     0.00200
C204        C  0.29334997  0.91434385  0.30232258    -0.12000
C205        C  0.29317022  0.87811863  0.30673270     0.02700
C206        C  0.27293024  0.85740871  0.28378210    -0.11400
H207        H  0.24343778  0.92074947  0.22798692     0.08300
H208        H  0.30690708  0.92982436  0.32207452     0.05800
H209        H  0.27173908  0.82935471  0.28760326     0.05700
C210        C  0.63371366  0.86786108  0.24820135     0.02700
C211        C  0.60789188  0.85210987  0.26895991    -0.13400
C212        C  0.58455970  0.87265844  0.28797679     0.00200
C213        C  0.58735141  0.90904516  0.28639283    -0.12000
C214        C  0.61561050  0.92581783  0.26955953     0.02700
C215        C  0.63850356  0.90465711  0.24964610    -0.11400
H216        H  0.60555187  0.82382283  0.26977165     0.08300
H217        H  0.56746922  0.92402600  0.29969048     0.05800
H218        H  0.65988161  0.91635562  0.23540248     0.05700
C219        C  0.25842066  0.87116528  0.65246921     0.02700
C220        C  0.28839962  0.85647929  0.63693593    -0.13400
C221        C  0.31337648  0.87769396  0.62078014     0.00200
C222        C  0.30843660  0.91394954  0.62103314    -0.12000
C223        C  0.27726624  0.92938017  0.63357705     0.02700
C224        C  0.25257692  0.90760033  0.65018657    -0.11400
H225        H  0.29203698  0.82837170  0.63699772     0.08300
H226        H  0.32851618  0.92997565  0.60932742     0.05800
H227        H  0.22832050  0.91844684  0.66001821     0.05700
C228        C  0.65177244  0.86768939  0.64992330     0.02700
C229        C  0.63486891  0.85269296  0.62055287    -0.13400
C230        C  0.61881826  0.87373307  0.59531263     0.00200
C231        C  0.62048849  0.91010811  0.59928547    -0.12000
C232        C  0.63487769  0.92612621  0.62968258     0.02700
C233        C  0.65157911  0.90443026  0.65465044    -0.11400
H234        H  0.63385866  0.82448113  0.61755136     0.08300
H235        H  0.60878085  0.92582633  0.57883875     0.05800
H236        H  0.66308671  0.91564164  0.67822592     0.05700
C237        C  0.75774961  0.71929895  0.17718818     0.79800
N238        N  0.74480765  0.70494213  0.14704397    -0.78500
C239        C  0.71714774  0.71973963  0.12970041     0.82300
N240        N  0.70208971  0.74902309  0.14328832    -0.78400
C241        C  0.71504090  0.76417388  0.17314483     0.82400
N242        N  0.74275575  0.74891733  0.18985871    -0.80200
O243        O  0.07969599  0.48264925  0.39515823    -0.73300
O244        O  0.07537933  0.41537890  0.47627117    -0.74300
O245        O  0.08024059  0.40791722  0.40271888    -0.62900
O246        O  0.07462835  0.49051483  0.46931754    -0.71400
O247        O  0.01642644  0.49036508  0.46287258    -0.70900
O248        O  0.02172194  0.40652863  0.40032264    -0.62200
O249        O  0.01703231  0.41616859  0.47205937    -0.74700
O250        O  0.02138980  0.47956110  0.39002611    -0.73500
Cu251      Cu  0.07965163  0.44932848  0.43610851     1.04600
Cu252      Cu  0.01723766  0.44830859  0.43124723     1.04300
C253        C  0.05096883  0.49110354  0.37953514     0.92900
C254        C  0.04529660  0.40408756  0.48583990     0.92000
C255        C  0.05144662  0.39375574  0.39192691     0.84100
C256        C  0.04450607  0.50358829  0.47627946     0.90400
C257        C  0.02388420  0.24448319  0.24716413     0.02700
C258        C  0.04030623  0.26283261  0.27482784    -0.13400
C259        C  0.02023023  0.28033584  0.29963089     0.00200
C260        C  0.98344125  0.27917315  0.29669310    -0.12000
C261        C  0.96591054  0.26367165  0.26765090     0.02700
C262        C  0.98675325  0.24529437  0.24326721    -0.11400
H263        H  0.06881172  0.26351352  0.27700085     0.08300
H264        H  0.96877966  0.29176031  0.31712679     0.05800
H265        H  0.97468885  0.23268508  0.22072796     0.05700
C266        C  0.02389399  0.64220484  0.23870310     0.02700
C267        C  0.98689155  0.64591111  0.24087751    -0.13400
C268        C  0.96668029  0.62018380  0.25805192     0.00200
C269        C  0.98429642  0.59021477  0.27049358    -0.12000
C270        C  0.02096538  0.58782455  0.27114232     0.02700
C271        C  0.04069406  0.61389478  0.25516269    -0.11400
H272        H  0.97449605  0.66905375  0.23026661     0.08300
H273        H  0.96970613  0.56878429  0.28159372     0.05800
H274        H  0.06921396  0.61211563  0.25541970     0.05700
C275        C  0.02130257  0.24926434  0.62697474     0.02700
C276        C  0.03564349  0.27321873  0.60317719    -0.13400
C277        C  0.01368128  0.29564839  0.58420848     0.00200
C278        C  0.97759688  0.29529608  0.59049425    -0.12000
C279        C  0.96173435  0.26898286  0.61052469     0.02700
C280        C  0.98420505  0.24633916  0.62967436    -0.11400
H281        H  0.06390321  0.27441917  0.59954550     0.08300
H282        H  0.96195330  0.31561817  0.57841196     0.05800
H283        H  0.97329839  0.22681674  0.64677478     0.05700
C284        C  0.02184800  0.64727685  0.62843221     0.02700
C285        C  0.98561621  0.64327843  0.63583104    -0.13400
C286        C  0.96305373  0.62457558  0.61257512     0.00200
C287        C  0.97754813  0.61126197  0.58153122    -0.12000
C288        C  0.01370073  0.61242665  0.57527460     0.02700
C289        C  0.03577396  0.63048544  0.59886807    -0.11400
H290        H  0.97536499  0.65448443  0.65961612     0.08300
H291        H  0.96094230  0.59829465  0.56227456     0.05800
H292        H  0.06385330  0.63155129  0.59421491     0.05700
O293        O  0.86479398  0.39611692  0.47161353    -0.73300
O294        O  0.87474516  0.48322276  0.41483494    -0.74300
O295        O  0.87012044  0.46819410  0.48700116    -0.62900
O296        O  0.86985987  0.41127306  0.39949724    -0.71400
O297        O  0.81140578  0.41284518  0.39655276    -0.70900
O298        O  0.81213594  0.47467552  0.48296892    -0.62200
O299        O  0.81655739  0.48629992  0.40913752    -0.74700
O300        O  0.80655861  0.40120613  0.47027302    -0.73500
Cu301      Cu  0.87179788  0.43953643  0.44336475     1.04600
Cu302      Cu  0.80951459  0.44393233  0.43958909     1.04300
C303        C  0.83436080  0.38536057  0.48064528     0.92900
C304        C  0.84725979  0.49823364  0.40253689     0.92000
C305        C  0.84145151  0.48039384  0.49901008     0.84100
C306        C  0.84092022  0.40306764  0.38412280     0.90400
C307        C  0.86820803  0.25295427  0.23875068     0.02700
C308        C  0.90483585  0.24655778  0.24222372    -0.13400
C309        C  0.92659850  0.26902234  0.26283533     0.00200
C310        C  0.91036467  0.29776030  0.27946057    -0.12000
C311        C  0.87381934  0.30257707  0.27873561     0.02700
C312        C  0.85302488  0.28044457  0.25781784    -0.11400
H313        H  0.91600356  0.22440089  0.22870355     0.08300
H314        H  0.92589173  0.31695228  0.29365417     0.05800
H315        H  0.82484573  0.28475729  0.25610440     0.05700
C316        C  0.86808672  0.64424978  0.25199129     0.02700
C317        C  0.90461260  0.64400710  0.24490586    -0.13400
C318        C  0.92803344  0.62405822  0.26567346     0.00200
C319        C  0.91415339  0.60622791  0.29457742    -0.12000
C320        C  0.87802190  0.60420289  0.30056727     0.02700
C321        C  0.85516819  0.62388755  0.27961167    -0.11400
H322        H  0.91448698  0.65913014  0.22335057     0.08300
H323        H  0.93142026  0.59284572  0.31269452     0.05800
H324        H  0.82717544  0.62330898  0.28475185     0.05700
C325        C  0.86568267  0.25044650  0.63606352     0.02700
C326        C  0.84752822  0.26676588  0.60837198    -0.13400
C327        C  0.86605520  0.28128061  0.58067473     0.00200
C328        C  0.90287874  0.27961099  0.58118097    -0.12000
C329        C  0.92209701  0.26586705  0.60982740     0.02700
C330        C  0.90287868  0.25038465  0.63698572    -0.11400
H331        H  0.81897404  0.26763330  0.60813450     0.08300
H332        H  0.91634479  0.29002485  0.55889478     0.05800
H333        H  0.91638258  0.23896379  0.65920878     0.05700
C334        C  0.86745436  0.63161232  0.64458610     0.02700
C335        C  0.85222533  0.60252924  0.62740921    -0.13400
C336        C  0.87283100  0.58053340  0.60677337     0.00200
C337        C  0.90913937  0.58665699  0.60537086    -0.12000
C338        C  0.92494792  0.61686241  0.62015190     0.02700
C339        C  0.90357537  0.63934205  0.64011631    -0.11400
H340        H  0.82421988  0.59752357  0.62951611     0.08300
H341        H  0.92485182  0.56787361  0.59131466     0.05800
H342        H  0.91453583  0.66295731  0.65168749     0.05700
C343        C  0.17905539  0.13097090  0.17705883     0.79800
N344        N  0.14916497  0.14527073  0.19013503    -0.78500
C345        C  0.13137052  0.17039253  0.17187798     0.82300
N346        N  0.14441704  0.18171536  0.14091407    -0.78400
C347        C  0.17376668  0.16697666  0.12719110     0.82400
N348        N  0.19057637  0.14162675  0.14553298    -0.80200
C349        C  0.84238118  0.38144456  0.35215741    -0.06500
C350        C  0.82433945  0.34937812  0.35118931    -0.17700
C351        C  0.83227336  0.32370766  0.32606556     0.10700
C352        C  0.85831500  0.33069615  0.30085507    -0.06500
C353        C  0.87361896  0.36423678  0.29997859    -0.17700
C354        C  0.86608198  0.38948588  0.32529348     0.10700
S355        S  0.81213817  0.28098010  0.32956473    -0.32700
S356        S  0.88871043  0.43101526  0.32282133    -0.32700
H357        H  0.86208728  0.45060415  0.33888407     0.28700
H358        H  0.78565101  0.29073683  0.35298416     0.28700
H359        H  0.80633848  0.34328913  0.37197993     0.19300
H360        H  0.89292085  0.37027463  0.28031433     0.19300
C361        C  0.83228600  0.35456599  0.50366172    -0.06500
C362        C  0.84963174  0.32399042  0.49328515    -0.17700
C363        C  0.85675298  0.29716762  0.51704002     0.10700
C364        C  0.84813809  0.30168430  0.55260487    -0.06500
C365        C  0.82778259  0.33076492  0.56219521    -0.17700
C366        C  0.81922868  0.35689208  0.53795038     0.10700
S367        S  0.87834818  0.25853131  0.50073078    -0.32700
S368        S  0.79552767  0.39452299  0.55340296    -0.32700
H369        H  0.77213492  0.39528641  0.52463526     0.28700
H370        H  0.86705031  0.23629671  0.52751336     0.28700
H371        H  0.85894611  0.32159590  0.46676071     0.19300
H372        H  0.82067934  0.33446816  0.58926220     0.19300
C373        C  0.85124329  0.52875159  0.37934354    -0.06500
C374        C  0.83223588  0.52914154  0.34763823    -0.17700
C375        C  0.83953014  0.55383051  0.32175992     0.10700
C376        C  0.86525495  0.58016712  0.32827883    -0.06500
C377        C  0.88242348  0.58102497  0.36109626    -0.17700
C378        C  0.87611915  0.55555168  0.38634148     0.10700
S379        S  0.81752112  0.54791193  0.28008947    -0.32700
S380        S  0.90105125  0.55851416  0.42674214    -0.32700
H381        H  0.87441798  0.54461400  0.44779356     0.28700
H382        H  0.84762589  0.55450098  0.26014497     0.28700
H383        H  0.81339077  0.50840153  0.34189009     0.19300
H384        H  0.90184153  0.60124477  0.36678453     0.19300
C385        C  0.84297805  0.50206692  0.53117124    -0.06500
C386        C  0.82447075  0.53378204  0.53196590    -0.17700
C387        C  0.83184333  0.55923563  0.55764928     0.10700
C388        C  0.85742900  0.55240038  0.58407608    -0.06500
C389        C  0.87308252  0.51914790  0.58514088    -0.17700
C390        C  0.86627462  0.49408841  0.55914346     0.10700
S391        S  0.81028704  0.60093626  0.55290896    -0.32700
S392        S  0.88908657  0.45285827  0.56276506    -0.32700
H393        H  0.86335964  0.43290969  0.54486967     0.28700
H394        H  0.84096626  0.62100334  0.55876420     0.28700
H395        H  0.80640466  0.54006608  0.51075680     0.19300
H396        H  0.89217855  0.51325060  0.60557209     0.19300
C397        C  0.10009598  0.18796965  0.18714823    -0.06500
C398        C  0.09691426  0.22444446  0.18358753    -0.17700
C399        C  0.07054526  0.24318238  0.20075868     0.10700
C400        C  0.04658322  0.22535086  0.22229728    -0.06500
C401        C  0.04835803  0.18874477  0.22432091    -0.17700
C402        C  0.07447866  0.16989013  0.20674045     0.10700
S403        S  0.06975663  0.29005895  0.19535171    -0.32700
S404        S  0.07344944  0.12287778  0.21021856    -0.32700
H405        H  0.08568507  0.11653797  0.17627870     0.28700
H406        H  0.03362286  0.29421554  0.20177679     0.28700
H407        H  0.11592700  0.23874424  0.16834207     0.19300
H408        H  0.02998779  0.17484576  0.24065851     0.19300
C409        C  0.03685175  0.30391117  0.32622080    -0.06500
C410        C  0.05783015  0.33184961  0.31460918    -0.17700
C411        C  0.06510829  0.36086560  0.33619515     0.10700
C412        C  0.05145810  0.36180756  0.37025066    -0.06500
C413        C  0.03343885  0.33249608  0.38287348    -0.17700
C414        C  0.02657687  0.30339715  0.36154231     0.10700
S415        S  0.08914094  0.39695234  0.31777504    -0.32700
S416        S  0.00353352  0.26696465  0.38055900    -0.32700
H417        H  0.01558885  0.24175329  0.35669689     0.28700
H418        H  0.06965643  0.42357879  0.33390210     0.28700
H419        H  0.06602564  0.33251730  0.28762675     0.19300
H420        H  0.02366389  0.33273269  0.40934310     0.19300
C421        C  0.04217685  0.37446661  0.51036023    -0.06500
C422        C  0.01795778  0.34806993  0.50111684    -0.17700
C423        C  0.01110338  0.32022156  0.52335211     0.10700
C424        C  0.02713997  0.31946737  0.55692827    -0.06500
C425        C  0.05297664  0.34463839  0.56552452    -0.17700
C426        C  0.06128213  0.37159895  0.54217260     0.10700
S427        S  0.98142969  0.28655896  0.50720823    -0.32700
S428        S  0.09446478  0.40278125  0.55540506    -0.32700
H429        H  0.11505344  0.39687611  0.52573675     0.28700
H430        H  0.99598961  0.25938341  0.52733240     0.28700
H431        H  0.00430813  0.34901261  0.47608107     0.19300
H432        H  0.06580673  0.34403485  0.59095053     0.19300
C433        C  0.03765136  0.56042309  0.29310241    -0.06500
C434        C  0.05836692  0.57116395  0.32200294    -0.17700
C435        C  0.06502470  0.54849246  0.34998669     0.10700
C436        C  0.05102914  0.51420375  0.34888090    -0.06500
C437        C  0.03311058  0.50260650  0.31867573    -0.17700
C438        C  0.02685284  0.52504855  0.29061971     0.10700
S439        S  0.08844815  0.56592025  0.38756433    -0.32700
S440        S  0.00351940  0.50745711  0.25302204    -0.32700
H441        H  0.01554733  0.53268931  0.22935960     0.28700
H442        H  0.06733357  0.54957261  0.41258123     0.28700
H443        H  0.06670045  0.59825960  0.32427938     0.19300
H444        H  0.02298010  0.47605071  0.31735365     0.19300
C445        C  0.04153323  0.53416128  0.50005350    -0.06500
C446        C  0.01955015  0.56194376  0.48999945    -0.17700
C447        C  0.01319705  0.59015083  0.51257740     0.10700
C448        C  0.02798791  0.59018499  0.54673338    -0.06500
C449        C  0.05185143  0.56361980  0.55585605    -0.17700
C450        C  0.05862901  0.53567246  0.53306611     0.10700
S451        S  0.98575625  0.62514195  0.49639522    -0.32700
S452        S  0.08664353  0.50118022  0.54905609    -0.32700
H453        H  0.06543362  0.47389930  0.53556164     0.28700
H454        H  0.99911825  0.65088690  0.51946776     0.28700
H455        H  0.00703554  0.56156515  0.46437863     0.19300
H456        H  0.06317231  0.56310464  0.58198370     0.19300
C457        C  0.84254964  0.66582417  0.23153494    -0.06500
C458        C  0.81882681  0.68673232  0.25011106    -0.17700
C459        C  0.79073695  0.70368907  0.23346315     0.10700
C460        C  0.78701452  0.70179014  0.19663661    -0.06500
C461        C  0.81146351  0.68173906  0.17784992    -0.17700
C462        C  0.83876390  0.66334448  0.19484551     0.10700
S463        S  0.75897938  0.72419052  0.26145856    -0.32700
S464        S  0.86658101  0.63474230  0.16966104    -0.32700
H465        H  0.85355373  0.64421564  0.13648460     0.28700
H466        H  0.72961130  0.70969272  0.24366980     0.28700
H467        H  0.82116177  0.68844052  0.27830159     0.19300
H468        H  0.80866224  0.67982219  0.14975485     0.19300
C469        C  0.65540903  0.84510715  0.22538471    -0.06500
C470        C  0.69174951  0.84238227  0.23186513    -0.17700
C471        C  0.71236219  0.81770111  0.21413125     0.10700
C472        C  0.69628876  0.79440963  0.18948350    -0.06500
C473        C  0.66012542  0.79845948  0.18205634    -0.17700
C474        C  0.63974498  0.82338258  0.19941823     0.10700
S475        S  0.75889999  0.81781313  0.22421689    -0.32700
S476        S  0.59355625  0.82552801  0.18771426    -0.32700
H477        H  0.58951155  0.86131393  0.19534658     0.28700
H478        H  0.76908992  0.81193178  0.18951704     0.28700
H479        H  0.70405979  0.85908898  0.25155436     0.19300
H480        H  0.64711787  0.78131310  0.16321323     0.19300
C481        C  0.36486045  0.84880015  0.38945064    -0.06500
C482        C  0.36757584  0.83261131  0.35658000    -0.17700
C483        C  0.34380200  0.84039039  0.32927659     0.10700
C484        C  0.31525724  0.86326536  0.33545146    -0.06500
C485        C  0.31110748  0.87708078  0.36919645    -0.17700
C486        C  0.33574012  0.87078026  0.39590900     0.10700
S487        S  0.35361795  0.82329857  0.28655189    -0.32700
S488        S  0.32905206  0.89324083  0.43689083    -0.32700
H489        H  0.34964712  0.87121324  0.45789088     0.28700
H490        H  0.34541062  0.85422438  0.26848546     0.28700
H491        H  0.39016766  0.81624367  0.35119845     0.19300
H492        H  0.28939185  0.89468002  0.37425936     0.19300
C493        C  0.38702329  0.84818177  0.54215081    -0.06500
C494        C  0.39806748  0.86959892  0.57018090    -0.17700
C495        C  0.37620037  0.87609380  0.59860574     0.10700
C496        C  0.34146275  0.86255251  0.59842281    -0.06500
C497        C  0.33148176  0.83881188  0.57184471    -0.17700
C498        C  0.35380840  0.83128725  0.54390219     0.10700
S499        S  0.39410175  0.90184503  0.63432101    -0.32700
S500        S  0.33697709  0.80165301  0.51072243    -0.32700
H501        H  0.35388618  0.81662401  0.48217439     0.28700
H502        H  0.37136074  0.88837537  0.65966485     0.28700
H503        H  0.42402221  0.88157955  0.56984406     0.19300
H504        H  0.30505517  0.82790219  0.57144721     0.19300
C505        C  0.51497178  0.84333794  0.36976008    -0.06500
C506        C  0.50118228  0.85794378  0.33897811    -0.17700
C507        C  0.52266775  0.86456275  0.31034072     0.10700
C508        C  0.55908346  0.85709895  0.31256378    -0.06500
C509        C  0.57249273  0.84070063  0.34266882    -0.17700
C510        C  0.55087450  0.83371423  0.37122373     0.10700
S511        S  0.50244201  0.88424564  0.27237197    -0.32700
S512        S  0.57163982  0.81698599  0.41029620    -0.32700
H513        H  0.54415006  0.79398363  0.41862103     0.28700
H514        H  0.52744051  0.87218334  0.24842348     0.28700
H515        H  0.47364759  0.86532621  0.33767070     0.19300
H516        H  0.60048525  0.83552633  0.34491264     0.19300
C517        C  0.53892556  0.84427092  0.52072179    -0.06500
C518        C  0.56878717  0.86263440  0.50963381    -0.17700
C519        C  0.59724966  0.86934828  0.53238107     0.10700
C520        C  0.59557282  0.85841421  0.56752638    -0.06500
C521        C  0.56694693  0.83755839  0.57776811    -0.17700
C522        C  0.53854277  0.83063921  0.55489833     0.10700
S523        S  0.63452433  0.89272364  0.51524959    -0.32700
S524        S  0.50119176  0.80741286  0.57198417    -0.32700
H525        H  0.47556498  0.82883484  0.55616711     0.28700
H526        H  0.65915546  0.88033523  0.53999475     0.28700
H527        H  0.56955618  0.87259659  0.48319766     0.19300
H528        H  0.56523665  0.82909328  0.60466449     0.19300
C529        C  0.24088157  0.05293841  0.23160251    -0.06500
C530        C  0.25705895  0.07880375  0.21138654    -0.17700
C531        C  0.23782489  0.10573549  0.19596841     0.10700
C532        C  0.20055128  0.10550247  0.19737610    -0.06500
C533        C  0.18402148  0.07959867  0.21736598    -0.17700
C534        C  0.20377163  0.05400623  0.23524792     0.10700
S535        S  0.26314555  0.14116323  0.17792119    -0.32700
S536        S  0.18023118  0.02496732  0.26359625    -0.32700
H537        H  0.20677474  0.02384366  0.28958226     0.28700
H538        H  0.23979879  0.16762439  0.18839748     0.28700
H539        H  0.28550070  0.07903204  0.20886821     0.19300
H540        H  0.15554827  0.07952656  0.21943567     0.19300
C541        C  0.39252379  0.04858181  0.36545191    -0.06500
C542        C  0.40343328  0.02706768  0.33786758    -0.17700
C543        C  0.38179039  0.02114905  0.30856354     0.10700
C544        C  0.34735304  0.03522502  0.30762266    -0.06500
C545        C  0.33782930  0.05934806  0.33365932    -0.17700
C546        C  0.36008361  0.06645716  0.36232453     0.10700
S547        S  0.39960851  0.99543977  0.27335723    -0.32700
S548        S  0.34418702  0.09679157  0.39470632    -0.32700
H549        H  0.35734794  0.07911436  0.42405468     0.28700
H550        H  0.37708517  0.00898682  0.24729213     0.28700
H551        H  0.42898273  0.01446949  0.33932963     0.19300
H552        H  0.31175057  0.07083327  0.33314226     0.19300
C553        C  0.30847456  0.03232888  0.56270785    -0.06500
C554        C  0.30671717  0.01711396  0.52923587    -0.17700
C555        C  0.33310866  0.02286402  0.50478179     0.10700
C556        C  0.36180552  0.04515064  0.51351400    -0.06500
C557        C  0.36190744  0.06291286  0.54565685    -0.17700
C558        C  0.33622071  0.05608468  0.57063944     0.10700
S559        S  0.32901242  0.99979286  0.46362086    -0.32700
S560        S  0.34282336  0.07541386  0.61328963    -0.32700
H561        H  0.33590619  0.04446589  0.63172731     0.28700
H562        H  0.35001701  0.02252598  0.44418482     0.28700
H563        H  0.28548045  0.99902525  0.52275395     0.19300
H564        H  0.38395127  0.07983010  0.55264791     0.19300
C565        C  0.53988278  0.04850188  0.39387148    -0.06500
C566        C  0.53504429  0.06373005  0.36094434    -0.17700
C567        C  0.55689348  0.05498959  0.33309604     0.10700
C568        C  0.58551479  0.03190197  0.33868308    -0.06500
C569        C  0.59213394  0.01935383  0.37257184    -0.17700
C570        C  0.56958583  0.02720663  0.40007214     0.10700
S571        S  0.54413727  0.07081871  0.29050375    -0.32700
S572        S  0.57926126  0.00823390  0.44214946    -0.32700
H573        H  0.56204008  0.03403609  0.46185205     0.28700
H574        H  0.55012718  0.03897500  0.27300544     0.28700
H575        H  0.51197715  0.07971690  0.35593517     0.19300
H576        H  0.61421703  0.00199770  0.37729362     0.19300
C577        C  0.51393328  0.04541042  0.54521824    -0.06500
C578        C  0.54689730  0.06206237  0.54433374    -0.17700
C579        C  0.57326828  0.05453008  0.56915624     0.10700
C580        C  0.56606191  0.03107511  0.59668831    -0.06500
C581        C  0.53190950  0.01694358  0.59912630    -0.17700
C582        C  0.50598743  0.02359463  0.57367945     0.10700
S583        S  0.61645173  0.07259997  0.56174916    -0.32700
S584        S  0.46365708  0.00258396  0.57835844    -0.32700
H585        H  0.44413017  0.02839860  0.56066815     0.28700
H586        H  0.63463494  0.04128177  0.56847997     0.28700
H587        H  0.55325017  0.07860536  0.52237665     0.19300
H588        H  0.52587279  0.99921097  0.62022914     0.19300
C589        C  0.36147069  0.37006271  0.84122978    -0.06500
C590        C  0.33502898  0.37588545  0.86569007    -0.17700
C591        C  0.31039088  0.35014941  0.87352844     0.10700
C592        C  0.31313865  0.31656694  0.85817322    -0.06500
C593        C  0.33840560  0.31092878  0.83236801    -0.17700
C594        C  0.36219727  0.33756296  0.82326891     0.10700
S595        S  0.27682540  0.36157688  0.90448154    -0.32700
S596        S  0.39505395  0.32729081  0.79145661    -0.32700
H597        H  0.38826991  0.35725019  0.77136850     0.28700
H598        H  0.25101743  0.33847017  0.89103359     0.28700
H599        H  0.33407116  0.40042287  0.87978653     0.19300
H600        H  0.34056114  0.28530022  0.82033962     0.19300
C601        C  0.51083332  0.35616332  0.83809512    -0.06500
C602        C  0.54443013  0.35977669  0.82376160    -0.17700
C603        C  0.57160077  0.33609887  0.83212480     0.10700
C604        C  0.56459540  0.30752957  0.85443802    -0.06500
C605        C  0.52984851  0.30207421  0.86543034    -0.17700
C606        C  0.50318608  0.32613787  0.85800641     0.10700
S607        S  0.61574239  0.34545881  0.81784830    -0.32700
S608        S  0.46059305  0.31811415  0.87684096    -0.32700
H609        H  0.44120862  0.33813353  0.85280385     0.28700
H610        H  0.60679913  0.37258359  0.79471427     0.28700
H611        H  0.55024877  0.38298893  0.80878189     0.19300
H612        H  0.52394506  0.27999756  0.88204016     0.19300
C613        C  0.32624475  0.57826776  0.86414489    -0.06500
C614        C  0.32300246  0.54585997  0.88083701    -0.17700
C615        C  0.34550027  0.51814358  0.87369415     0.10700
C616        C  0.37249007  0.52206728  0.84900210    -0.06500
C617        C  0.37505355  0.55392718  0.83089238    -0.17700
C618        C  0.35252649  0.58223832  0.83853684     0.10700
S619        S  0.33766302  0.47788279  0.89653336    -0.32700
S620        S  0.36006526  0.62300869  0.81636604    -0.32700
H621        H  0.34896308  0.64480371  0.84373914     0.28700
H622        H  0.34483578  0.45722514  0.86707187     0.28700
H623        H  0.30250723  0.54202209  0.89988554     0.19300
H624        H  0.39577102  0.55739021  0.81204813     0.19300
C625        C  0.52840830  0.50834414  0.84415979    -0.06500
C626        C  0.55776364  0.49820342  0.86430767    -0.17700
C627        C  0.58515797  0.52167657  0.87195512     0.10700
C628        C  0.58286413  0.55652770  0.86004062    -0.06500
C629        C  0.55498428  0.56583096  0.83744018    -0.17700
C630        C  0.52759752  0.54221836  0.82960740     0.10700
S631        S  0.62177403  0.50593633  0.89795590    -0.32700
S632        S  0.49079745  0.55805113  0.80401106    -0.32700
H633        H  0.46477529  0.54254636  0.82468552     0.28700
H634        H  0.64637993  0.53056071  0.88599570     0.28700
H635        H  0.55893298  0.47198169  0.87490922     0.19300
H636        H  0.55299185  0.59251389  0.82820441     0.19300
C637        C  0.70104216  0.70155691  0.09870206    -0.06500
C638        C  0.70280938  0.66477776  0.09690084    -0.17700
C639        C  0.68410591  0.64572162  0.07127725     0.10700
C640        C  0.66228699  0.66346172  0.04710316    -0.06500
C641        C  0.66230701  0.70017863  0.04721897    -0.17700
C642        C  0.68191447  0.71936040  0.07218466     0.10700
S643        S  0.68852871  0.59873037  0.07120854    -0.32700
S644        S  0.68196649  0.76633101  0.06817782    -0.32700
H645        H  0.71725818  0.77050283  0.07930161     0.28700
H646        H  0.68156904  0.59398225  0.03532681     0.28700
H647        H  0.71797279  0.65051085  0.11628366     0.19300
H648        H  0.64631074  0.71401687  0.02815585     0.19300
C649        C  0.19088749  0.18138740  0.09539136    -0.06500
C650        C  0.22734355  0.17582174  0.09157600    -0.17700
C651        C  0.24674254  0.19297904  0.06613195     0.10700
C652        C  0.22966905  0.21646777  0.04340939    -0.06500
C653        C  0.19294678  0.22015227  0.04503067    -0.17700
C654        C  0.17330946  0.20250843  0.07032498     0.10700
S655        S  0.29358815  0.18509157  0.06514621    -0.32700
S656        S  0.12617465  0.20781658  0.06869895    -0.32700
H657        H  0.11892347  0.17286642  0.07760657     0.28700
H658        H  0.29767086  0.19236645  0.02949796     0.28700
H659        H  0.24148891  0.15889276  0.10932566     0.19300
H660        H  0.17962311  0.23777030  0.02715184     0.19300
C661        C  0.36027673  0.37250630  0.04846979    -0.06500
C662        C  0.32884898  0.38143414  0.03106440    -0.17700
C663        C  0.30236394  0.35668755  0.02478761     0.10700
C664        C  0.30774177  0.32159353  0.03486193    -0.06500
C665        C  0.33782017  0.31321962  0.05492898    -0.17700
C666        C  0.36420622  0.33830250  0.06195013     0.10700
S667        S  0.26286371  0.37118126  0.00247812    -0.32700
S668        S  0.40276814  0.32387306  0.08597682    -0.32700
H669        H  0.42649492  0.34964206  0.07514895     0.28700
H670        H  0.24094395  0.34438682  0.01491139     0.28700
H671        H  0.32522755  0.40787065  0.02153470     0.19300
H672        H  0.34203911  0.28637558  0.06292218     0.19300
C673        C  0.56864679  0.32705257  0.02904792    -0.06500
C674        C  0.53641996  0.32428050  0.01072459    -0.17700
C675        C  0.50894747  0.34765224  0.01630308     0.10700
C676        C  0.51328424  0.37505363  0.04097602    -0.06500
C677        C  0.54466404  0.37672521  0.06100666    -0.17700
C678        C  0.57256934  0.35330986  0.05499180     0.10700
S679        S  0.46907477  0.34070648  0.99083473    -0.32700
S680        S  0.61285904  0.35960184  0.07975965    -0.32700
H681        H  0.63562746  0.34830182  0.05341192     0.28700
H682        H  0.44600103  0.35242779  0.01664601     0.28700
H683        H  0.53280467  0.30381895  0.99124706     0.19300
H684        H  0.54822202  0.39753166  0.08007922     0.19300
C685        C  0.29570593  0.56447003  0.03418184    -0.06500
C686        C  0.32370675  0.57466533  0.05655565    -0.17700
C687        C  0.35178183  0.55188115  0.06389957     0.10700
C688        C  0.35164196  0.51802683  0.04896249    -0.06500
C689        C  0.32203935  0.50682987  0.02947561    -0.17700
C690        C  0.29391889  0.52936207  0.02247676     0.10700
S691        S  0.38839303  0.56868821  0.08948402    -0.32700
S692        S  0.25719078  0.51221373  0.99717917    -0.32700
H693        H  0.23256830  0.53695199  0.00880276     0.28700
H694        H  0.41476967  0.55301447  0.06934978     0.28700
H695        H  0.32537084  0.60149053  0.06576216     0.19300
H696        H  0.32131782  0.48055045  0.01867000     0.19300
C697        C  0.50671550  0.53182738  0.04384871    -0.06500
C698        C  0.49544147  0.56293242  0.02801335    -0.17700
C699        C  0.51889184  0.59085934  0.02280980     0.10700
C700        C  0.55464567  0.58740756  0.03299048    -0.06500
C701        C  0.56531124  0.55720915  0.05096477    -0.17700
C702        C  0.54185951  0.52933626  0.05626407     0.10700
S703        S  0.50328090  0.63065010  0.00263807    -0.32700
S704        S  0.55914129  0.49031665  0.07639607    -0.32700
H705        H  0.53924892  0.46651727  0.05600147     0.28700
H706        H  0.46772094  0.62051377  0.99915730     0.28700
H707        H  0.46827783  0.56501585  0.01916241     0.19300
H708        H  0.59278669  0.55414953  0.05849228     0.19300
C709        C  0.79064393  0.19039786  0.18304506    -0.06500
C710        C  0.79467882  0.22619352  0.17564245    -0.17700
C711        C  0.82160571  0.24629742  0.19112882     0.10700
C712        C  0.84473611  0.23100280  0.21596337    -0.06500
C713        C  0.84236051  0.19482945  0.22175073    -0.17700
C714        C  0.81624570  0.17430101  0.20500714     0.10700
S715        S  0.82485112  0.29153452  0.17818297    -0.32700
S716        S  0.81782878  0.12776213  0.21206944    -0.32700
H717        H  0.80728173  0.11893043  0.17774475     0.28700
H718        H  0.86142388  0.29447672  0.18406925     0.28700
H719        H  0.77619284  0.23907738  0.15817232     0.19300
H720        H  0.86048463  0.18257645  0.24004782     0.19300
C721        C  0.69056948  0.18662684  0.09948975    -0.06500
C722        C  0.65358385  0.18828481  0.10057444    -0.17700
C723        C  0.63405642  0.20730404  0.07577230     0.10700
C724        C  0.65172111  0.22602038  0.04940618    -0.06500
C725        C  0.68845073  0.22269163  0.04710672    -0.17700
C726        C  0.70788780  0.20293894  0.07132636     0.10700
S727        S  0.58670516  0.20633338  0.07919209    -0.32700
S728        S  0.75462205  0.19932053  0.06432449    -0.32700
H729        H  0.75709612  0.16468686  0.07638443     0.28700
H730        H  0.57972775  0.21068526  0.04332282     0.28700
H731        H  0.63971548  0.17543960  0.12146390     0.19300
H732        H  0.70229364  0.23626313  0.02664900     0.19300
C733        C  0.66127304  0.04748792  0.23432623    -0.06500
C734        C  0.68597548  0.06970377  0.25090932    -0.17700
C735        C  0.70237081  0.09710254  0.23323409     0.10700
C736        C  0.69582589  0.10177366  0.19698218    -0.06500
C737        C  0.67204461  0.07858475  0.18002970    -0.17700
C738        C  0.65429265  0.05214048  0.19829938     0.10700
S739        S  0.72858042  0.12673906  0.25972875    -0.32700
S740        S  0.62176197  0.02667897  0.17450621    -0.32700
H741        H  0.59779678  0.02436206  0.20204905     0.28700
H742        H  0.71281756  0.15698156  0.24577210     0.28700
H743        H  0.69116559  0.06682616  0.27865691     0.19300
H744        H  0.66641659  0.08162984  0.15240726     0.19300
C745        C  0.22952254  0.66459052  0.83960240    -0.06500
C746        C  0.24794283  0.68523483  0.81574770    -0.17700
C747        C  0.23077478  0.70248243  0.78833076     0.10700
C748        C  0.19351732  0.70075152  0.78500149    -0.06500
C749        C  0.17483748  0.68080434  0.80943746    -0.17700
C750        C  0.19235581  0.66242043  0.83629061     0.10700
S751        S  0.25874383  0.72380629  0.75719155    -0.32700
S752        S  0.16585053  0.63554662  0.86421549    -0.32700
H753        H  0.19090125  0.60880540  0.86826362     0.28700
H754        H  0.24031107  0.71054168  0.72779747     0.28700
H755        H  0.27642398  0.68688771  0.81773043     0.19300
H756        H  0.14640295  0.67902481  0.80728209     0.19300
C757        C  0.23241865  0.84723092  0.66860345    -0.06500
C758        C  0.21854128  0.81982396  0.64801066    -0.17700
C759        C  0.19825801  0.79313577  0.66251150     0.10700
C760        C  0.18985837  0.79439891  0.69834622    -0.06500
C761        C  0.20253603  0.82257119  0.71876029    -0.17700
C762        C  0.22404275  0.84866674  0.70443874     0.10700
S763        S  0.18723638  0.75645381  0.63456013    -0.32700
S764        S  0.24177217  0.88162805  0.73369753    -0.32700
H765        H  0.27506141  0.88351016  0.71816118     0.28700
H766        H  0.19614135  0.73091927  0.65948595     0.28700
H767        H  0.22523579  0.81816650  0.62064473     0.19300
H768        H  0.19680387  0.82349429  0.74637341     0.19300
C769        C  0.04590424  0.66847107  0.65138960    -0.06500
C770        C  0.05124917  0.65891917  0.68641515    -0.17700
C771        C  0.07665111  0.67588438  0.70777295     0.10700
C772        C  0.09832485  0.70258931  0.69369668    -0.06500
C773        C  0.09177557  0.71273641  0.65887311    -0.17700
C774        C  0.06579704  0.69655442  0.63801638     0.10700
S775        S  0.07918460  0.66254276  0.75274728    -0.32700
S776        S  0.05928874  0.71321460  0.59439793    -0.32700
H777        H  0.02305666  0.70547936  0.59217814     0.28700
H778        H  0.08214378  0.69693299  0.76584298     0.28700
H779        H  0.03580731  0.63773642  0.69711710     0.19300
H780        H  0.10726797  0.73337655  0.64731629     0.19300
C781        C  0.17844471  0.19084392  0.79333674    -0.06500
C782        C  0.17468191  0.22730135  0.79714901    -0.17700
C783        C  0.19294611  0.24598850  0.82326725     0.10700
C784        C  0.21629414  0.22820707  0.84599133    -0.06500
C785        C  0.21780084  0.19156522  0.84432913    -0.17700
C786        C  0.19871610  0.17269787  0.81877556     0.10700
S787        S  0.18600772  0.29264172  0.82568595    -0.32700
S788        S  0.20122841  0.12565277  0.82041246    -0.32700
H789        H  0.16630199  0.12014626  0.80872195     0.28700
H790        H  0.19418188  0.29601595  0.86148786     0.28700
H791        H  0.15847732  0.24176173  0.77887754     0.19300
H792        H  0.23493380  0.17761329  0.86230328     0.19300
C793        C  0.04592594  0.22930865  0.65003793    -0.06500
C794        C  0.07038938  0.24850729  0.67027104    -0.17700
C795        C  0.09698941  0.23206803  0.68967540     0.10700
C796        C  0.09874421  0.19505131  0.69049650    -0.06500
C797        C  0.07399979  0.17567412  0.67049026    -0.17700
C798        C  0.04779877  0.19239827  0.65011418     0.10700
S799        S  0.12950883  0.26028550  0.71010040    -0.32700
S800        S  0.01826351  0.16660305  0.62290462    -0.32700
H801        H  0.03306496  0.13380537  0.63065545     0.28700
H802        H  0.15840743  0.23923470  0.70118878     0.28700
H803        H  0.06960539  0.27684948  0.66982956     0.19300
H804        H  0.07539975  0.14739906  0.67067673     0.19300
C805        C  0.19054063  0.10396901  0.69821501    -0.06500
C806        C  0.17193536  0.07726766  0.68039599    -0.17700
C807        C  0.18954854  0.05050699  0.66245450     0.10700
C808        C  0.22680133  0.04979648  0.66273541    -0.06500
C809        C  0.24538158  0.07583467  0.68138109    -0.17700
C810        C  0.22788051  0.10297364  0.69863012     0.10700
S811        S  0.16292127  0.01895271  0.63870651    -0.32700
S812        S  0.25498242  0.13692754  0.71806343    -0.32700
H813        H  0.23381558  0.16462909  0.70599189     0.28700
H814        H  0.18655731  0.01324034  0.61138949     0.28700
H815        H  0.14336763  0.07767086  0.67979904     0.19300
H816        H  0.27395876  0.07591561  0.68110122     0.19300
C817        C  0.67450562  0.23426244  0.85174692    -0.06500
C818        C  0.67583559  0.19763062  0.85329162    -0.17700
C819        C  0.69641594  0.17833176  0.82999603     0.10700
C820        C  0.71512302  0.19586482  0.80351554    -0.06500
C821        C  0.71588767  0.23267949  0.80394246    -0.17700
C822        C  0.69629845  0.25193255  0.82799282     0.10700
S823        S  0.69799744  0.13158726  0.83579649    -0.32700
S824        S  0.69967533  0.29899686  0.82659311    -0.32700
H825        H  0.69097727  0.30486343  0.86169872     0.28700
H826        H  0.73294968  0.12809553  0.82453254     0.28700
H827        H  0.65993526  0.18390390  0.87212990     0.19300
H828        H  0.73075417  0.24674076  0.78453647     0.19300
C829        C  0.84519149  0.23258569  0.66334185    -0.06500
C830        C  0.84617837  0.19593848  0.66481262    -0.17700
C831        C  0.82320746  0.17720113  0.68617095     0.10700
C832        C  0.79785258  0.19535660  0.70598562    -0.06500
C833        C  0.79829999  0.23220129  0.70584411    -0.17700
C834        C  0.82178406  0.25090574  0.68507652     0.10700
S835        S  0.82813867  0.13034479  0.68740793    -0.32700
S836        S  0.82023707  0.29807591  0.68697339    -0.32700
H837        H  0.85570294  0.30356747  0.67829062     0.28700
H838        H  0.82001458  0.12730113  0.72298469     0.28700
H839        H  0.86445859  0.18175178  0.64853779     0.19300
H840        H  0.77955087  0.24666230  0.72133131     0.19300
C841        C  0.66943583  0.04729866  0.67827213    -0.06500
C842        C  0.65311739  0.06712933  0.70431607    -0.17700
C843        C  0.67046389  0.09484258  0.72144864     0.10700
C844        C  0.70611385  0.10278823  0.71356623    -0.06500
C845        C  0.72305111  0.08155199  0.68868492    -0.17700
C846        C  0.70508966  0.05443743  0.67072055     0.10700
S847        S  0.64393344  0.12034262  0.75072869    -0.32700
S848        S  0.72864772  0.03122167  0.63733291    -0.32700
H849        H  0.69981554  0.02773065  0.61408826     0.28700
H850        H  0.65178308  0.15224412  0.73432047     0.28700
H851        H  0.62568531  0.06210307  0.71008980     0.19300
H852        H  0.75026610  0.08675925  0.68227491     0.19300
C853        C  0.19232207  0.80069253  0.19245862    -0.06500
C854        C  0.18404571  0.80648576  0.22775404    -0.17700
C855        C  0.20228883  0.83105542  0.24841206     0.10700
C856        C  0.23023374  0.85048370  0.23405109    -0.06500
C857        C  0.23754199  0.84630269  0.19849753    -0.17700
C858        C  0.21869591  0.82220698  0.17749094     0.10700
S859        S  0.18874803  0.83598690  0.29315290    -0.32700
S860        S  0.22937475  0.82115026  0.13184485    -0.32700
H861        H  0.19404052  0.81840855  0.12045710     0.28700
H862        H  0.19870759  0.87132343  0.29668635     0.28700
H863        H  0.16357116  0.79128595  0.23990137     0.19300
H864        H  0.25853346  0.86155211  0.18711127     0.19300
C865        C  0.19235255  0.70898718  0.09984173    -0.06500
C866        C  0.17110355  0.69035670  0.07563311    -0.17700
C867        C  0.18575360  0.67182339  0.04764989     0.10700
C868        C  0.22262261  0.67219766  0.04303426    -0.06500
C869        C  0.24374185  0.69181136  0.06632762    -0.17700
C870        C  0.22933149  0.70933703  0.09495123     0.10700
S871        S  0.15636583  0.64549229  0.02093352    -0.32700
S872        S  0.26021222  0.72755231  0.12635690    -0.32700
H873        H  0.24302612  0.71343571  0.15542091     0.28700
H874        H  0.17447291  0.65024222  0.98965449     0.28700
H875        H  0.14279643  0.68945322  0.07899773     0.19300
H876        H  0.27216771  0.69105601  0.06379905     0.19300
C877        C  0.04645592  0.66816296  0.22103776    -0.06500
C878        C  0.07006527  0.68768150  0.24186364    -0.17700
C879        C  0.09774746  0.70659172  0.22724553     0.10700
C880        C  0.10125193  0.70777489  0.19045128    -0.06500
C881        C  0.07644107  0.68949255  0.16952044    -0.17700
C882        C  0.04960497  0.66926323  0.18435381     0.10700
S883        S  0.12968412  0.72489486  0.25751332    -0.32700
S884        S  0.02149222  0.64421119  0.15507338    -0.32700
H885        H  0.01629036  0.61555001  0.17724467     0.28700
H886        H  0.15899935  0.71253654  0.23910926     0.28700
H887        H  0.06842022  0.68607477  0.27003110     0.19300
H888        H  0.07871387  0.68992290  0.14137280     0.19300
C889        C  0.84421755  0.65515204  0.66467829    -0.06500
C890        C  0.82134202  0.67717690  0.64601323    -0.17700
C891        C  0.79449075  0.69568774  0.66268577     0.10700
C892        C  0.79091851  0.69333634  0.69940587    -0.06500
C893        C  0.81422399  0.67144685  0.71802082    -0.17700
C894        C  0.84051546  0.65230329  0.70116841     0.10700
S895        S  0.76373631  0.71869512  0.63492731    -0.32700
S896        S  0.86652864  0.62272348  0.72740039    -0.32700
H897        H  0.89738820  0.62512943  0.70785411     0.28700
H898        H  0.73374807  0.70543726  0.65162366     0.28700
H899        H  0.82320212  0.67841446  0.61783374     0.19300
H900        H  0.81165969  0.66874882  0.74601242     0.19300
C901        C  0.66878045  0.84392500  0.67552672    -0.06500
C902        C  0.70567178  0.84380954  0.67839596    -0.17700
C903        C  0.72350092  0.81699266  0.69614963     0.10700
C904        C  0.70414713  0.78917007  0.71094892    -0.06500
C905        C  0.66715243  0.79064923  0.70999253    -0.17700
C906        C  0.64935705  0.81764834  0.69267228     0.10700
S907        S  0.77088014  0.81981645  0.69892166    -0.32700
S908        S  0.60179452  0.81626524  0.69210211    -0.32700
H909        H  0.59687424  0.85244316  0.68773671     0.28700
H910        H  0.77370650  0.80417764  0.73200678     0.28700
H911        H  0.72074990  0.86397419  0.66552804     0.19300
H912        H  0.65187742  0.76982733  0.72156158     0.19300
C913        C  0.70405530  0.69079305  0.79388863    -0.06500
C914        C  0.68286023  0.70977435  0.81721995    -0.17700
C915        C  0.66361045  0.69304023  0.84336987     0.10700
C916        C  0.66637859  0.65641178  0.84737144    -0.06500
C917        C  0.68941026  0.63787585  0.82580188    -0.17700
C918        C  0.70734951  0.65413196  0.79877624     0.10700
S919        S  0.63470982  0.71971408  0.86921570    -0.32700
S920        S  0.73108368  0.62541949  0.77002563    -0.32700
H921        H  0.71377510  0.63775612  0.73977680     0.28700
H922        H  0.60729665  0.69494791  0.87065919     0.28700
H923        H  0.68015922  0.73783791  0.81432682     0.19300
H924        H  0.69184251  0.60976698  0.82875669     0.19300
loop_ 
_geom_bond_atom_site_label_1 
_geom_bond_atom_site_label_2 
_geom_bond_distance 
_geom_bond_site_symmetry_2 
_ccdc_geom_bond_type 
C1            N2   1.360       .  A
C1            N6   1.358       .  A
C1          C892   1.492       .  S
N2            C3   1.361       .  A
C3            N4   1.361       .  A
C3          C904   1.486       .  S
N4            C5   1.361       .  A
C5            N6   1.357       .  A
C5          C913   1.494       .  S
C7            N8   1.361       .  A
C7           N12   1.361       .  A
C7          C865   1.493       .  S
N8            C9   1.360       .  A
C9           N10   1.362       .  A
C9          C853   1.501       .  S
N10          C11   1.360       .  A
C11          N12   1.360       .  A
C11         C880   1.491       .  S
C13          N14   1.364       .  A
C13          N18   1.359       .  A
C13         C832   1.488       .  S
N14          C15   1.364       .  A
C15          N16   1.359       .  A
C15         C844   1.502       .  S
N16          C17   1.359       .  A
C17          N18   1.357       .  A
C17         C820   1.489       .  S
C19          N20   1.363       .  A
C19          N24   1.360       .  A
C19         C805   1.489       .  S
N20          C21   1.362       .  A
C21          N22   1.361       .  A
C21         C796   1.491       .  S
N22          C23   1.360       .  A
C23          N24   1.360       .  A
C23         C781   1.494       .  S
C25          N26   1.358       .  A
C25          N30   1.355       .  A
C25         C760   1.483       .  S
N26          C27   1.363       .  A
C27          N28   1.366       .  A
C27         C772   1.504       .  S
N28          C29   1.365       .  A
C29          N30   1.358       .  A
C29         C748   1.493       .  S
C31          N32   1.363       .  A
C31          N36   1.359       .  A
C31         C721   1.492       .  S
N32          C33   1.364       .  A
C33          N34   1.362       .  A
C33         C736   1.499       .  S
N34          C35   1.360       .  A
C35          N36   1.359       .  A
C35         C709   1.496       .  S
O37         Cu45   2.000       .  S
O37          C47   1.277       .  A
O38         Cu45   1.987       .  S
O38          C48   1.275       .  A
O39         Cu45   2.010       .  S
O39          C49   1.278       .  A
O40         Cu45   1.997       .  S
O40          C50   1.277       .  A
O41         Cu46   2.024       .  S
O41          C50   1.279       .  A
O42         Cu46   2.024       .  S
O42          C49   1.279       .  A
O43         Cu46   2.037       .  S
O43          C48   1.281       .  A
O44         Cu46   2.034       .  S
O44          C47   1.280       .  A
Cu45        Cu46   2.374       .  S
C47         C676   1.483       .  S
C48         C688   1.476       .  S
C49         C697   1.477       .  S
C50         C661   1.473       .  S
C51         C652   1.477       .  S
C51          C52   1.405       .  A
C51          C56   1.411   1_554  A
C52          C53   1.395       .  A
C52          H57   1.084       .  S
C53         C664   1.484       .  S
C53          C54   1.397   1_554  A
C54          C55   1.412       .  A
C54          H58   1.079       .  S
C55         C105   1.508       .  S
C55          C56   1.413       .  A
C56          H59   1.081       .  S
C60         C868   1.484       .  S
C60          C61   1.417   1_554  A
C60          C65   1.406       .  A
C61          C62   1.415       .  A
C61          H66   1.083       .  S
C62         C112   1.508       .  S
C62          C63   1.412       .  A
C63          C64   1.397   1_556  A
C63          H67   1.080       .  S
C64         C685   1.487       .  S
C64          C65   1.395       .  A
C65          H68   1.085       .  S
C69         C724   1.492       .  S
C69          C70   1.412       .  A
C69          C74   1.416   1_554  A
C70          C71   1.401       .  A
C70          H75   1.083       .  S
C71         C673   1.488       .  S
C71          C72   1.396   1_554  A
C72          C73   1.406       .  A
C72          H76   1.082       .  S
C73         C121   1.504       .  S
C73          C74   1.412       .  A
C74          H77   1.082       .  S
C78         C640   1.484       .  S
C78          C79   1.409       .  A
C78          C83   1.412   1_554  A
C79          C80   1.400       .  A
C79          H84   1.084       .  S
C80         C700   1.487       .  S
C80          C81   1.396   1_554  A
C81          C82   1.409       .  A
C81          H85   1.080       .  S
C82         C132   1.505       .  S
C82          C83   1.413       .  A
C83          H86   1.082       .  S
O87         Cu95   1.994       .  S
O87          C97   1.277       .  A
O88         Cu95   1.995       .  S
O88          C98   1.276       .  A
O89         Cu95   1.997       .  S
O89          C99   1.277       .  A
O90         Cu95   1.989       .  S
O90         C100   1.275       .  A
O91         Cu96   2.039       .  S
O91         C100   1.281       .  A
O92         Cu96   2.048       .  S
O92          C99   1.282       .  A
O93         Cu96   2.022       .  S
O93          C98   1.279       .  A
O94         Cu96   2.031       .  S
O94          C97   1.279       .  A
Cu95        Cu96   2.372       .  S
C97         C589   1.481       .  S
C98         C625   1.474       .  S
C99         C616   1.487       .  S
C100        C601   1.477       .  S
C101        C784   1.483       .  S
C101        C102   1.407       .  A
C101        C106   1.413       .  A
C102        C103   1.395       .  A
C102        H107   1.083       .  S
C103        C592   1.481       .  S
C103        C104   1.396       .  A
C104        C105   1.410       .  A
C104        H108   1.081       .  S
C105        C106   1.415       .  A
C106        H109   1.080       .  S
C110        C745   1.493       .  S
C110        C111   1.419       .  A
C110        C115   1.412       .  A
C111        C112   1.415       .  A
C111        H116   1.082       .  S
C112        C113   1.409       .  A
C113        C114   1.397       .  A
C113        H117   1.083       .  S
C114        C613   1.493       .  S
C114        C115   1.398       .  A
C115        H118   1.083       .  S
C119        C817   1.482       .  S
C119        C120   1.412       .  A
C119        C124   1.409       .  A
C120        C121   1.410       .  A
C120        H125   1.082       .  S
C121        C122   1.411       .  A
C122        C123   1.400       .  A
C122        H126   1.081       .  S
C123        C604   1.494       .  S
C123        C124   1.400       .  A
C124        H127   1.084       .  S
C128        C916   1.486       .  S
C128        C129   1.407       .  A
C128        C133   1.414       .  A
C129        C130   1.392       .  A
C129        H134   1.084       .  S
C130        C628   1.483       .  S
C130        C131   1.396       .  A
C131        C132   1.412       .  A
C131        H135   1.080       .  S
C132        C133   1.414       .  A
C133        H136   1.081       .  S
O137       Cu145   2.017       .  S
O137        C147   1.278       .  A
O138       Cu145   2.023       .  S
O138        C148   1.279       .  A
O139       Cu145   2.019       .  S
O139        C149   1.278       .  A
O140       Cu145   2.024       .  S
O140        C150   1.280       .  A
O141       Cu146   2.000       .  S
O141        C150   1.276       .  A
O142       Cu146   1.998       .  S
O142        C149   1.277       .  A
O143       Cu146   2.002       .  S
O143        C148   1.277       .  A
O144       Cu146   2.000       .  S
O144        C147   1.277       .  A
Cu145      Cu146   2.373       .  S
C147        C541   1.475       .  S
C148        C577   1.476       .  S
C149        C565   1.473       .  S
C150        C556   1.477       .  S
C151        C529   1.495       .  S
C151        C152   1.408       .  A
C151        C156   1.418   1_545  A
C152        C153   1.394       .  A
C152        H157   1.084       .  S
C153        C544   1.489       .  S
C153        C154   1.395   1_545  A
C154        C155   1.411       .  A
C154        H158   1.079       .  S
C155        C203   1.509       .  S
C155        C156   1.416       .  A
C156        H159   1.082       .  S
C160        C733   1.493       .  S
C160        C161   1.407       .  A
C160        C165   1.420   1_545  A
C161        C162   1.394       .  A
C161        H166   1.084       .  S
C162        C568   1.486       .  S
C162        C163   1.395   1_545  A
C163        C164   1.413       .  A
C163        H167   1.080       .  S
C164        C214   1.513       .  S
C164        C165   1.419       .  A
C165        H168   1.082       .  S
C169        C808   1.486       .  S
C169        C170   1.407       .  A
C169        C174   1.416   1_545  A
C170        C171   1.398       .  A
C170        H175   1.084       .  S
C171        C553   1.487       .  S
C171        C172   1.395   1_545  A
C172        C173   1.409       .  A
C172        H176   1.081       .  S
C173        C223   1.506       .  S
C173        C174   1.416       .  A
C174        H177   1.082       .  S
C178        C841   1.492       .  S
C178        C179   1.419   1_545  A
C178        C183   1.409       .  A
C179        C180   1.418       .  A
C179        H184   1.082       .  S
C180        C232   1.508       .  S
C180        C181   1.409       .  A
C181        C182   1.395   1_565  A
C181        H185   1.081       .  S
C182        C580   1.489       .  S
C182        C183   1.398       .  A
C183        H186   1.084       .  S
O187       Cu195   2.001       .  S
O187        C197   1.276       .  A
O188       Cu195   1.997       .  S
O188        C198   1.276       .  A
O189       Cu195   2.006       .  S
O189        C199   1.277       .  A
O190       Cu195   2.010       .  S
O190        C200   1.278       .  A
O191       Cu196   2.028       .  S
O191        C200   1.279       .  A
O192       Cu196   2.024       .  S
O192        C199   1.279       .  A
O193       Cu196   2.031       .  S
O193        C198   1.280       .  A
O194       Cu196   2.031       .  S
O194        C197   1.280       .  A
Cu195      Cu196   2.373       .  S
C197        C481   1.479       .  S
C198        C517   1.476       .  S
C199        C505   1.476       .  S
C200        C493   1.483       .  S
C201        C856   1.487       .  S
C201        C202   1.416       .  A
C201        C206   1.409       .  A
C202        C203   1.414       .  A
C202        H207   1.082       .  S
C203        C204   1.410       .  A
C204        C205   1.395       .  A
C204        H208   1.081       .  S
C205        C484   1.489       .  S
C205        C206   1.399       .  A
C206        H209   1.084       .  S
C210        C469   1.488       .  S
C210        C211   1.407       .  A
C210        C215   1.418       .  A
C211        C212   1.396       .  A
C211        H216   1.085       .  S
C212        C508   1.485       .  S
C212        C213   1.396       .  A
C213        C214   1.413       .  A
C213        H217   1.081       .  S
C214        C215   1.417       .  A
C215        H218   1.081       .  S
C219        C757   1.487       .  S
C219        C220   1.409       .  A
C219        C224   1.414       .  A
C220        C221   1.399       .  A
C220        H225   1.083       .  S
C221        C496   1.493       .  S
C221        C222   1.399       .  A
C222        C223   1.413       .  A
C222        H226   1.080       .  S
C223        C224   1.412       .  A
C224        H227   1.083       .  S
C228        C901   1.483       .  S
C228        C229   1.405       .  A
C228        C233   1.415       .  A
C229        C230   1.395       .  A
C229        H234   1.084       .  S
C230        C520   1.488       .  S
C230        C231   1.398       .  A
C231        C232   1.414       .  A
C231        H235   1.081       .  S
C232        C233   1.414       .  A
C233        H236   1.083       .  S
C237        N238   1.360       .  A
C237        N242   1.359       .  A
C237        C460   1.491       .  S
N238        C239   1.360       .  A
C239        N240   1.362       .  A
C239        C637   1.494       .  S
N240        C241   1.363       .  A
C241        N242   1.358       .  A
C241        C472   1.498       .  S
O243       Cu251   2.026       .  S
O243        C253   1.279       .  A
O244       Cu251   2.026       .  S
O244        C254   1.278       .  A
O245       Cu251   2.029       .  S
O245        C255   1.280       .  A
O246       Cu251   2.029       .  S
O246        C256   1.280       .  A
O247       Cu252   2.008       .  S
O247        C256   1.277       .  A
O248       Cu252   1.992       .  S
O248        C255   1.276       .  A
O249       Cu252   1.994       .  S
O249        C254   1.277       .  A
O250       Cu252   1.993       .  S
O250        C253   1.276       .  A
Cu251      Cu252   2.373       .  S
C253        C436   1.473       .  S
C254        C421   1.481       .  S
C255        C412   1.472       .  S
C256        C445   1.483       .  S
C257        C400   1.485       .  S
C257        C258   1.404       .  A
C257        C262   1.415   1_455  A
C258        C259   1.396       .  A
C258        H263   1.084       .  S
C259        C409   1.488       .  S
C259        C260   1.399   1_455  A
C260        C261   1.414       .  A
C260        H264   1.079       .  S
C261        C309   1.515       .  S
C261        C262   1.418       .  A
C262        H265   1.081       .  S
C266        C877   1.481       .  S
C266        C267   1.415   1_455  A
C266        C271   1.405       .  A
C267        C268   1.416       .  A
C267        H272   1.082       .  S
C268        C318   1.507       .  S
C268        C269   1.410       .  A
C269        C270   1.395   1_655  A
C269        H273   1.080       .  S
C270        C433   1.485       .  S
C270        C271   1.394       .  A
C271        H274   1.085       .  S
C275        C793   1.491       .  S
C275        C276   1.409       .  A
C275        C280   1.417   1_455  A
C276        C277   1.397       .  A
C276        H281   1.084       .  S
C277        C424   1.485       .  S
C277        C278   1.394   1_455  A
C278        C279   1.407       .  A
C278        H282   1.081       .  S
C279        C329   1.508       .  S
C279        C280   1.417       .  A
C280        H283   1.081       .  S
C284        C769   1.492       .  S
C284        C285   1.416   1_455  A
C284        C289   1.409       .  A
C285        C286   1.415       .  A
C285        H290   1.083       .  S
C286        C338   1.508       .  S
C286        C287   1.411       .  A
C287        C288   1.397   1_655  A
C287        H291   1.080       .  S
C288        C448   1.491       .  S
C288        C289   1.400       .  A
C289        H292   1.084       .  S
O293       Cu301   2.005       .  S
O293        C303   1.278       .  A
O294       Cu301   2.004       .  S
O294        C304   1.277       .  A
O295       Cu301   1.995       .  S
O295        C305   1.276       .  A
O296       Cu301   1.993       .  S
O296        C306   1.276       .  A
O297       Cu302   2.029       .  S
O297        C306   1.280       .  A
O298       Cu302   2.031       .  S
O298        C305   1.280       .  A
O299       Cu302   2.020       .  S
O299        C304   1.279       .  A
O300       Cu302   2.021       .  S
O300        C303   1.278       .  A
Cu301      Cu302   2.372       .  S
C303        C361   1.477       .  S
C304        C373   1.479       .  S
C305        C385   1.481       .  S
C306        C349   1.475       .  S
C307        C712   1.491       .  S
C307        C308   1.417       .  A
C307        C312   1.406       .  A
C308        C309   1.418       .  A
C308        H313   1.081       .  S
C309        C310   1.414       .  A
C310        C311   1.400       .  A
C310        H314   1.079       .  S
C311        C352   1.492       .  S
C311        C312   1.396       .  A
C312        H315   1.084       .  S
C316        C457   1.491       .  S
C316        C317   1.416       .  A
C316        C321   1.410       .  A
C317        C318   1.412       .  A
C317        H322   1.081       .  S
C318        C319   1.411       .  A
C319        C320   1.396       .  A
C319        H323   1.080       .  S
C320        C376   1.493       .  S
C320        C321   1.398       .  A
C321        H324   1.083       .  S
C325        C829   1.480       .  S
C325        C326   1.406       .  A
C325        C330   1.411       .  A
C326        C327   1.398       .  A
C326        H331   1.084       .  S
C327        C364   1.489       .  S
C327        C328   1.399       .  A
C328        C329   1.413       .  A
C328        H332   1.079       .  S
C329        C330   1.411       .  A
C330        H333   1.082       .  S
C334        C889   1.482       .  S
C334        C335   1.406       .  A
C334        C339   1.414       .  A
C335        C336   1.399       .  A
C335        H340   1.083       .  S
C336        C388   1.491       .  S
C336        C337   1.399       .  A
C337        C338   1.411       .  A
C337        H341   1.081       .  S
C338        C339   1.413       .  A
C339        H342   1.082       .  S
C343        N344   1.362       .  A
C343        N348   1.355       .  A
C343        C532   1.488       .  S
N344        C345   1.366       .  A
C345        N346   1.364       .  A
C345        C397   1.491       .  S
N346        C347   1.361       .  A
C347        N348   1.356       .  A
C347        C649   1.496       .  S
C349        C350   1.401       .  A
C349        C354   1.411       .  A
C350        C351   1.407       .  A
C350        H359   1.083       .  S
C351        C352   1.418       .  A
C351        S355   1.807       .  S
C352        C353   1.406       .  A
C353        C354   1.397       .  A
C353        H360   1.084       .  S
C354        S356   1.805       .  S
S355        H358   1.407       .  S
S356        H357   1.406       .  S
C361        C362   1.402       .  A
C361        C366   1.413       .  A
C362        C363   1.399       .  A
C362        H371   1.084       .  S
C363        C364   1.416       .  A
C363        S367   1.804       .  S
C364        C365   1.406       .  A
C365        C366   1.403       .  A
C365        H372   1.084       .  S
C366        S368   1.801       .  S
S367        H370   1.407       .  S
S368        H369   1.405       .  S
C373        C374   1.404       .  A
C373        C378   1.412       .  A
C374        C375   1.402       .  A
C374        H383   1.085       .  S
C375        C376   1.418       .  A
C375        S379   1.803       .  S
C376        C377   1.407       .  A
C377        C378   1.399       .  A
C377        H384   1.085       .  S
C378        S380   1.805       .  S
S379        H382   1.407       .  S
S380        H381   1.407       .  S
C385        C386   1.403       .  A
C385        C390   1.414       .  A
C386        C387   1.404       .  A
C386        H395   1.084       .  S
C387        C388   1.418       .  A
C387        S391   1.803       .  S
C388        C389   1.405       .  A
C389        C390   1.398       .  A
C389        H396   1.084       .  S
C390        S392   1.805       .  S
S391        H394   1.406       .  S
S392        H393   1.405       .  S
C397        C398   1.407       .  A
C397        C402   1.417       .  A
C398        C399   1.402       .  A
C398        H407   1.083       .  S
C399        C400   1.413       .  A
C399        S403   1.805       .  S
C400        C401   1.403       .  A
C401        C402   1.405       .  A
C401        H408   1.083       .  S
C402        S404   1.802       .  S
S403        H406   1.406       .  S
S404        H405   1.407       .  S
C409        C410   1.408       .  A
C409        C414   1.414       .  A
C410        C411   1.403       .  A
C410        H419   1.084       .  S
C411        C412   1.411       .  A
C411        S415   1.803       .  S
C412        C413   1.402       .  A
C413        C414   1.397       .  A
C413        H420   1.085       .  S
C414        S416   1.804       .  S
S415        H418   1.405       .  S
S416        H417   1.407       .  S
C421        C422   1.402       .  A
C421        C426   1.414       .  A
C422        C423   1.393       .  A
C422        H431   1.084       .  S
C423        C424   1.415       .  A
C423        S427   1.807   1_455  S
C424        C425   1.405       .  A
C425        C426   1.406       .  A
C425        H432   1.083       .  S
C426        S428   1.796       .  S
S427        H430   1.407       .  S
S428        H429   1.406       .  S
C433        C434   1.407       .  A
C433        C438   1.413       .  A
C434        C435   1.403       .  A
C434        H443   1.084       .  S
C435        C436   1.412       .  A
C435        S439   1.803       .  S
C436        C437   1.402       .  A
C437        C438   1.397       .  A
C437        H444   1.084       .  S
C438        S440   1.805       .  S
S439        H442   1.406       .  S
S440        H441   1.407       .  S
C445        C446   1.405       .  A
C445        C450   1.413       .  A
C446        C447   1.402       .  A
C446        H455   1.084       .  S
C447        C448   1.416       .  A
C447        S451   1.805   1_455  S
C448        C449   1.405       .  A
C449        C450   1.402       .  A
C449        H456   1.084       .  S
C450        S452   1.801       .  S
S451        H454   1.407       .  S
S452        H453   1.406       .  S
C457        C458   1.405       .  A
C457        C462   1.413       .  A
C458        C459   1.397       .  A
C458        H467   1.084       .  S
C459        C460   1.417       .  A
C459        S463   1.803       .  S
C460        C461   1.409       .  A
C461        C462   1.408       .  A
C461        H468   1.082       .  S
C462        S464   1.807       .  S
S463        H466   1.408       .  S
S464        H465   1.407       .  S
C469        C470   1.402       .  A
C469        C474   1.415       .  A
C470        C471   1.406       .  A
C470        H479   1.085       .  S
C471        C472   1.423       .  A
C471        S475   1.802       .  S
C472        C473   1.407       .  A
C473        C474   1.400       .  A
C473        H480   1.084       .  S
C474        S476   1.805       .  S
S475        H478   1.407       .  S
S476        H477   1.406       .  S
C481        C482   1.405       .  A
C481        C486   1.414       .  A
C482        C483   1.405       .  A
C482        H491   1.085       .  S
C483        C484   1.416       .  A
C483        S487   1.803       .  S
C484        C485   1.405       .  A
C485        C486   1.398       .  A
C485        H492   1.085       .  S
C486        S488   1.807       .  S
S487        H490   1.406       .  S
S488        H489   1.400       .  S
C493        C494   1.404       .  A
C493        C498   1.417       .  A
C494        C495   1.400       .  A
C494        H503   1.085       .  S
C495        C496   1.414       .  A
C495        S499   1.804       .  S
C496        C497   1.407       .  A
C497        C498   1.404       .  A
C497        H504   1.085       .  S
C498        S500   1.805       .  S
S499        H502   1.407       .  S
S500        H501   1.400       .  S
C505        C506   1.403       .  A
C505        C510   1.413       .  A
C506        C507   1.400       .  A
C506        H515   1.084       .  S
C507        C508   1.413       .  A
C507        S511   1.804       .  S
C508        C509   1.405       .  A
C509        C510   1.403       .  A
C509        H516   1.083       .  S
C510        S512   1.803       .  S
S511        H514   1.406       .  S
S512        H513   1.403       .  S
C517        C518   1.403       .  A
C517        C522   1.412       .  A
C518        C519   1.400       .  A
C518        H527   1.085       .  S
C519        C520   1.414       .  A
C519        S523   1.804       .  S
C520        C521   1.407       .  A
C521        C522   1.402       .  A
C521        H528   1.084       .  S
C522        S524   1.803       .  S
S523        H526   1.407       .  S
S524        H525   1.406       .  S
C529        C530   1.404       .  A
C529        C534   1.418       .  A
C530        C531   1.393       .  A
C530        H539   1.085       .  S
C531        C532   1.416       .  A
C531        S535   1.804       .  S
C532        C533   1.406       .  A
C533        C534   1.409       .  A
C533        H540   1.085       .  S
C534        S536   1.801       .  S
S535        H538   1.407       .  S
S536        H537   1.407       .  S
C541        C542   1.403       .  A
C541        C546   1.414       .  A
C542        C543   1.398       .  A
C542        H551   1.085       .  S
C543        C544   1.415       .  A
C543        S547   1.805   1_545  S
C544        C545   1.406       .  A
C545        C546   1.400       .  A
C545        H552   1.084       .  S
C546        S548   1.805       .  S
S547        H550   1.407   1_565  S
S548        H549   1.401       .  S
C553        C554   1.405       .  A
C553        C558   1.416       .  A
C554        C555   1.399       .  A
C554        H563   1.085   1_545  S
C555        C556   1.415       .  A
C555        S559   1.806   1_545  S
C556        C557   1.402       .  A
C557        C558   1.401       .  A
C557        H564   1.085       .  S
C558        S560   1.803       .  S
S559        H562   1.402   1_565  S
S560        H561   1.407       .  S
C565        C566   1.402       .  A
C565        C570   1.411       .  A
C566        C567   1.400       .  A
C566        H575   1.085       .  S
C567        C568   1.416       .  A
C567        S571   1.803       .  S
C568        C569   1.406       .  A
C569        C570   1.399       .  A
C569        H576   1.084       .  S
C570        S572   1.804       .  S
S571        H574   1.407       .  S
S572        H573   1.407       .  S
C577        C578   1.402       .  A
C577        C582   1.412       .  A
C578        C579   1.402       .  A
C578        H587   1.085       .  S
C579        C580   1.417       .  A
C579        S583   1.803       .  S
C580        C581   1.407       .  A
C581        C582   1.400       .  A
C581        H588   1.084   1_545  S
C582        S584   1.805       .  S
S583        H586   1.407       .  S
S584        H585   1.407       .  S
C589        C590   1.401       .  A
C589        C594   1.417       .  A
C590        C591   1.392       .  A
C590        H599   1.080       .  S
C591        C592   1.413       .  A
C591        S595   1.806       .  S
C592        C593   1.404       .  A
C593        C594   1.407       .  A
C593        H600   1.084       .  S
C594        S596   1.799       .  S
S595        H598   1.406       .  S
S596        H597   1.405       .  S
C601        C602   1.402       .  A
C601        C606   1.413       .  A
C602        C603   1.409       .  A
C602        H611   1.083       .  S
C603        C604   1.417       .  A
C603        S607   1.805       .  S
C604        C605   1.405       .  A
C605        C606   1.397       .  A
C605        H612   1.084       .  S
C606        S608   1.806       .  S
S607        H610   1.407       .  S
S608        H609   1.402       .  S
C613        C614   1.403       .  A
C613        C618   1.418       .  A
C614        C615   1.391       .  A
C614        H623   1.085       .  S
C615        C616   1.413       .  A
C615        S619   1.800       .  S
C616        C617   1.408       .  A
C617        C618   1.413       .  A
C617        H624   1.083       .  S
C618        S620   1.803       .  S
S619        H622   1.404       .  S
S620        H621   1.406       .  S
C625        C626   1.403       .  A
C625        C630   1.413       .  A
C626        C627   1.397       .  A
C626        H635   1.084       .  S
C627        C628   1.413       .  A
C627        S631   1.805       .  S
C628        C629   1.405       .  A
C629        C630   1.402       .  A
C629        H636   1.084       .  S
C630        S632   1.803       .  S
S631        H634   1.407       .  S
S632        H633   1.406       .  S
C637        C638   1.409       .  A
C637        C642   1.418       .  A
C638        C639   1.402       .  A
C638        H647   1.083       .  S
C639        C640   1.411       .  A
C639        S643   1.804       .  S
C640        C641   1.403       .  A
C641        C642   1.404       .  A
C641        H648   1.084       .  S
C642        S644   1.802       .  S
S643        H646   1.406       .  S
S644        H645   1.408       .  S
C649        C650   1.410       .  A
C649        C654   1.418       .  A
C650        C651   1.395       .  A
C650        H659   1.080       .  S
C651        C652   1.407       .  A
C651        S655   1.805       .  S
C652        C653   1.403       .  A
C653        C654   1.405       .  A
C653        H660   1.084       .  S
C654        S656   1.801       .  S
S655        H658   1.406       .  S
S656        H657   1.408       .  S
C661        C662   1.402       .  A
C661        C666   1.416       .  A
C662        C663   1.395       .  A
C662        H671   1.085       .  S
C663        C664   1.412       .  A
C663        S667   1.805       .  S
C664        C665   1.406       .  A
C665        C666   1.406       .  A
C665        H672   1.084       .  S
C666        S668   1.807       .  S
S667        H670   1.407       .  S
S668        H669   1.401       .  S
C673        C674   1.404       .  A
C673        C678   1.414       .  A
C674        C675   1.393       .  A
C674        H683   1.085   1_554  S
C675        C676   1.414       .  A
C675        S679   1.806   1_554  S
C676        C677   1.408       .  A
C677        C678   1.410       .  A
C677        H684   1.083       .  S
C678        S680   1.802       .  S
S679        H682   1.403   1_556  S
S680        H681   1.405       .  S
C685        C686   1.408       .  A
C685        C690   1.413       .  A
C686        C687   1.405       .  A
C686        H695   1.083       .  S
C687        C688   1.411       .  A
C687        S691   1.803       .  S
C688        C689   1.404       .  A
C689        C690   1.397       .  A
C689        H696   1.084       .  S
C690        S692   1.805   1_554  S
S691        H694   1.406       .  S
S692        H693   1.407   1_556  S
C697        C698   1.403       .  A
C697        C702   1.413       .  A
C698        C699   1.404       .  A
C698        H707   1.084       .  S
C699        C700   1.413       .  A
C699        S703   1.807       .  S
C700        C701   1.405       .  A
C701        C702   1.403       .  A
C701        H708   1.085       .  S
C702        S704   1.804       .  S
S703        H706   1.407   1_554  S
S704        H705   1.406       .  S
C709        C710   1.407       .  A
C709        C714   1.420       .  A
C710        C711   1.399       .  A
C710        H719   1.084       .  S
C711        C712   1.415       .  A
C711        S715   1.805       .  S
C712        C713   1.404       .  A
C713        C714   1.407       .  A
C713        H720   1.084       .  S
C714        S716   1.801       .  S
S715        H718   1.407       .  S
S716        H717   1.408       .  S
C721        C722   1.406       .  A
C721        C726   1.418       .  A
C722        C723   1.404       .  A
C722        H731   1.083       .  S
C723        C724   1.416       .  A
C723        S727   1.804       .  S
C724        C725   1.404       .  A
C725        C726   1.402       .  A
C725        H732   1.084       .  S
C726        S728   1.803       .  S
S727        H730   1.406       .  S
S728        H729   1.407       .  S
C733        C734   1.405       .  A
C733        C738   1.414       .  A
C734        C735   1.399       .  A
C734        H743   1.084       .  S
C735        C736   1.419       .  A
C735        S739   1.803       .  S
C736        C737   1.411       .  A
C737        C738   1.408       .  A
C737        H744   1.083       .  S
C738        S740   1.802       .  S
S739        H742   1.408       .  S
S740        H741   1.406       .  S
C745        C746   1.403       .  A
C745        C750   1.416       .  A
C746        C747   1.397       .  A
C746        H755   1.084       .  S
C747        C748   1.419       .  A
C747        S751   1.804       .  S
C748        C749   1.408       .  A
C749        C750   1.409       .  A
C749        H756   1.083       .  S
C750        S752   1.802       .  S
S751        H754   1.408       .  S
S752        H753   1.406       .  S
C757        C758   1.404       .  A
C757        C762   1.414       .  A
C758        C759   1.398       .  A
C758        H767   1.084       .  S
C759        C760   1.414       .  A
C759        S763   1.803       .  S
C760        C761   1.406       .  A
C761        C762   1.405       .  A
C761        H768   1.083       .  S
C762        S764   1.803       .  S
S763        H766   1.408       .  S
S764        H765   1.406       .  S
C769        C770   1.405       .  A
C769        C774   1.413       .  A
C770        C771   1.409       .  A
C770        H779   1.084       .  S
C771        C772   1.422       .  A
C771        S775   1.801       .  S
C772        C773   1.410       .  A
C773        C774   1.400       .  A
C773        H780   1.083       .  S
C774        S776   1.805       .  S
S775        H778   1.407       .  S
S776        H777   1.407       .  S
C781        C782   1.408       .  A
C781        C786   1.418       .  A
C782        C783   1.400       .  A
C782        H791   1.080       .  S
C783        C784   1.412       .  A
C783        S787   1.805       .  S
C784        C785   1.403       .  A
C785        C786   1.403       .  A
C785        H792   1.084       .  S
C786        S788   1.802       .  S
S787        H790   1.407       .  S
S788        H789   1.407       .  S
C793        C794   1.403       .  A
C793        C798   1.412       .  A
C794        C795   1.398       .  A
C794        H803   1.084       .  S
C795        C796   1.417       .  A
C795        S799   1.803       .  S
C796        C797   1.409       .  A
C797        C798   1.412       .  A
C797        H804   1.082       .  S
C798        S800   1.805       .  S
S799        H802   1.407       .  S
S800        H801   1.407       .  S
C805        C806   1.406       .  A
C805        C810   1.417       .  A
C806        C807   1.405       .  A
C806        H815   1.084       .  S
C807        C808   1.414       .  A
C807        S811   1.804       .  S
C808        C809   1.403       .  A
C809        C810   1.401       .  A
C809        H816   1.085       .  S
C810        S812   1.803       .  S
S811        H814   1.405       .  S
S812        H813   1.407       .  S
C817        C818   1.402       .  A
C817        C822   1.412       .  A
C818        C819   1.403       .  A
C818        H827   1.084       .  S
C819        C820   1.417       .  A
C819        S823   1.802       .  S
C820        C821   1.407       .  A
C821        C822   1.400       .  A
C821        H828   1.084       .  S
C822        S824   1.804       .  S
S823        H826   1.407       .  S
S824        H825   1.406       .  S
C829        C830   1.402       .  A
C829        C834   1.411       .  A
C830        C831   1.402       .  A
C830        H839   1.084       .  S
C831        C832   1.416       .  A
C831        S835   1.802       .  S
C832        C833   1.408       .  A
C833        C834   1.400       .  A
C833        H840   1.084       .  S
C834        S836   1.805       .  S
S835        H838   1.407       .  S
S836        H837   1.406       .  S
C841        C842   1.402       .  A
C841        C846   1.414       .  A
C842        C843   1.400       .  A
C842        H851   1.084       .  S
C843        C844   1.423       .  A
C843        S847   1.803       .  S
C844        C845   1.412       .  A
C845        C846   1.409       .  A
C845        H852   1.083       .  S
C846        S848   1.802       .  S
S847        H850   1.408       .  S
S848        H849   1.406       .  S
C853        C854   1.409       .  A
C853        C858   1.422       .  A
C854        C855   1.399       .  A
C854        H863   1.081       .  S
C855        C856   1.412       .  A
C855        S859   1.806       .  S
C856        C857   1.402       .  A
C857        C858   1.406       .  A
C857        H864   1.084       .  S
C858        S860   1.801       .  S
S859        H862   1.406       .  S
S860        H861   1.407       .  S
C865        C866   1.408       .  A
C865        C870   1.419       .  A
C866        C867   1.404       .  A
C866        H875   1.084       .  S
C867        C868   1.413       .  A
C867        S871   1.803       .  S
C868        C869   1.402       .  A
C869        C870   1.401       .  A
C869        H876   1.085       .  S
C870        S872   1.802       .  S
S871        H874   1.402   1_554  S
S872        H873   1.408       .  S
C877        C878   1.401       .  A
C877        C882   1.413       .  A
C878        C879   1.399       .  A
C878        H887   1.084       .  S
C879        C880   1.419       .  A
C879        S883   1.801       .  S
C880        C881   1.408       .  A
C881        C882   1.405       .  A
C881        H888   1.083       .  S
C882        S884   1.805       .  S
S883        H886   1.407       .  S
S884        H885   1.405       .  S
C889        C890   1.402       .  A
C889        C894   1.412       .  A
C890        C891   1.402       .  A
C890        H899   1.084       .  S
C891        C892   1.418       .  A
C891        S895   1.802       .  S
C892        C893   1.408       .  A
C893        C894   1.402       .  A
C893        H900   1.084       .  S
C894        S896   1.804       .  S
S895        H898   1.408       .  S
S896        H897   1.402       .  S
C901        C902   1.403       .  A
C901        C906   1.414       .  A
C902        C903   1.403       .  A
C902        H911   1.083       .  S
C903        C904   1.416       .  A
C903        S907   1.802       .  S
C904        C905   1.405       .  A
C905        C906   1.400       .  A
C905        H912   1.083       .  S
C906        S908   1.805       .  S
S907        H910   1.407       .  S
S908        H909   1.406       .  S
C913        C914   1.411       .  A
C913        C918   1.420       .  A
C914        C915   1.404       .  A
C914        H923   1.084       .  S
C915        C916   1.413       .  A
C915        S919   1.803       .  S
C916        C917   1.403       .  A
C917        C918   1.395       .  A
C917        H924   1.085       .  S
C918        S920   1.803       .  S
S919        H922   1.406       .  S
S920        H921   1.408       .  S
