geometry optimzed in LAMMPS
_audit_creation_date              2020-12-01 
_audit_creation_method            'lammps2cif' 
_symmetry_space_group_name_H-M    'P1' 
_symmetry_Int_Tables_number       1 
_symmetry_cell_setting            triclinic 
loop_ 
_symmetry_equiv_pos_as_xyz 
  x,y,z 
_cell_length_a                    32.74267274 
_cell_length_b                    32.74119437688586 
_cell_length_c                    23.67368553730827 
_cell_angle_alpha                 89.99845666839393 
_cell_angle_beta                  89.99772132863308 
_cell_angle_gamma                 89.99515859574183 
loop_ 
_atom_site_label 
_atom_site_type_symbol 
_atom_site_fract_x 
_atom_site_fract_y 
_atom_site_fract_z 
_atom_site_charge 
N1          N  0.99929602  0.76748359  0.48862704    -0.00600
C2          C  0.98978230  0.72718888  0.49035149     0.02000
C3          C  0.99843959  0.71064135  0.04256061    -0.20900
C4          C  0.01390439  0.74164879  0.07473948    -0.21100
C5          C  0.01430069  0.77582872  0.04079736     0.01900
H6          H  0.99540824  0.67898223  0.05510778     0.15700
H7          H  0.02420594  0.73945067  0.11809359     0.15700
N8          N  0.99716991  0.23652274  0.01850008    -0.00600
C9          C  0.00672206  0.27680532  0.01679820     0.02000
C10         C  0.99809485  0.29337435  0.46459256    -0.20900
C11         C  0.98260932  0.26238709  0.43239219    -0.21100
C12         C  0.98217165  0.22820041  0.46632198     0.01900
H13         H  0.00115141  0.32503519  0.45206552     0.15700
H14         H  0.97231651  0.26460468  0.38903599     0.15700
N15         N  0.73264892  0.00338518  0.48863985    -0.00600
C16         C  0.77298315  0.99403489  0.49032495     0.02000
C17         C  0.78956383  0.00293910  0.04243069    -0.20900
C18         C  0.75853499  0.01838524  0.07459237    -0.21100
C19         C  0.72430804  0.01852531  0.04074227     0.01900
H20         H  0.82124316  0.00003696  0.05493153     0.15700
H21         H  0.76073829  0.02880355  0.11789272     0.15700
N22         N  0.26367067  0.00045188  0.01857024    -0.00600
C23         C  0.22339021  0.01001228  0.01680216     0.02000
C24         C  0.20683191  0.00124465  0.46463830    -0.20900
C25         C  0.23782401  0.98566809  0.43252663    -0.21100
C26         C  0.27200432  0.98531632  0.46646522     0.01900
H27         H  0.17518056  0.00430172  0.45207311     0.15700
H28         H  0.23562203  0.97529132  0.38920725     0.15700
N29         N  0.49674268  0.73628246  0.48879774    -0.00600
C30         C  0.50618662  0.77659458  0.49044952     0.02000
C31         C  0.49726586  0.79323375  0.04251688    -0.20900
C32         C  0.48171615  0.76226282  0.07468971    -0.21100
C33         C  0.48153375  0.72801136  0.04088324     0.01900
H34         H  0.50022596  0.82491604  0.05498154     0.15700
H35         H  0.47126564  0.76451948  0.11797073     0.15700
N36         N  0.49957390  0.26724059  0.01869483    -0.00600
C37         C  0.49012810  0.22693045  0.01702848     0.02000
C38         C  0.49907909  0.21029021  0.46497191    -0.20900
C39         C  0.51464822  0.24126060  0.43281783    -0.21100
C40         C  0.51481210  0.27551126  0.46662610     0.01900
H41         H  0.49612148  0.17860876  0.45250208     0.15700
H42         H  0.52511777  0.23900573  0.38954537     0.15700
N43         N  0.23273247  0.50293003  0.01848564    -0.00600
C44         C  0.27300710  0.49333440  0.01681132     0.02000
C45         C  0.28959509  0.50193099  0.46460724    -0.20900
C46         C  0.25863073  0.51744080  0.43238146    -0.21100
C47         C  0.22443654  0.51792390  0.46629347     0.01900
H48         H  0.32125464  0.49883605  0.45209573     0.15700
H49         H  0.26086903  0.52772026  0.38902026     0.15700
N50         N  0.76367980  0.50073471  0.48882897    -0.00600
C51         C  0.72337656  0.51021953  0.49048235     0.02000
C52         C  0.70678776  0.50153915  0.04265935    -0.20900
C53         C  0.73777677  0.48608863  0.07489017    -0.21100
C54         C  0.77198808  0.48572406  0.04100995     0.01900
H55         H  0.67511549  0.50454622  0.05515033     0.15700
H56         H  0.73554598  0.47577450  0.11823647     0.15700
O57         O  0.47255065  0.51667828  0.15889302    -0.85400
C58         C  0.44393928  0.56873324  0.31058231     0.90600
Mg59       Mg  0.46367262  0.45378095  0.13728255     1.58100
O60         O  0.54883609  0.56057665  0.28444075    -0.85200
O61         O  0.52029945  0.56420248  0.15971137    -0.72500
C62         C  0.53978708  0.36681779  0.36380826     0.95600
O63         O  0.40353656  0.49110973  0.24670987    -0.72300
O64         O  0.52076384  0.35650510  0.31922731    -0.79800
Mg65       Mg  0.42203468  0.54789196  0.19572400     1.58000
C66         C  0.62679128  0.51273688  0.39324378     0.95600
O67         O  0.43813095  0.60268430  0.13901849    -0.78100
H68         H  0.59636203  0.57100404  0.23334419    -0.03400
C69         C  0.49426536  0.46935892  0.37104123     0.90500
O70         O  0.53200245  0.44219975  0.15242005    -0.72600
O71         O  0.46002683  0.56791900  0.26332800    -0.85400
O72         O  0.60111727  0.54182157  0.39012704    -0.78200
C73         C  0.51822189  0.64688782  0.37260263     0.95700
C74         C  0.45651475  0.63670211  0.14369423     0.95500
Mg75       Mg  0.57425883  0.45562125  0.31175998     1.58000
O76         O  0.55818024  0.40083136  0.36846695    -0.78100
O77         O  0.59273813  0.51240293  0.26076308    -0.72300
O78         O  0.50485852  0.64577383  0.32166422    -0.78200
O79         O  0.37763571  0.52680551  0.13025412    -0.79900
O80         O  0.49141317  0.35773189  0.18584461    -0.78200
C81         C  0.58014426  0.54922606  0.25932460     0.90000
O82         O  0.53625173  0.43558996  0.24417868    -0.85300
O83         O  0.52374979  0.48682926  0.34861492    -0.85400
O84         O  0.47598689  0.43931705  0.34779170    -0.72500
Mg85       Mg  0.51211240  0.60302649  0.24095499     1.58000
O86         O  0.53705907  0.61679821  0.39455928    -0.79900
H87         H  0.51307247  0.52308382  0.09623740    -0.03600
O88         O  0.44743948  0.44293156  0.22305038    -0.85100
H89         H  0.39990014  0.43250840  0.27412559    -0.03400
H90         H  0.58469476  0.42862989  0.19356653    -0.03600
C91         C  0.41612645  0.45428510  0.24815316     0.89900
C92         C  0.50203135  0.53415311  0.13646566     0.90500
C93         C  0.55234463  0.43476020  0.19692977     0.90600
H94         H  0.48322755  0.48042855  0.41127123    -0.03600
O95         O  0.46428969  0.56129476  0.35508704    -0.72600
Mg96       Mg  0.48416417  0.40048657  0.26655261     1.58000
H97         H  0.41158715  0.57485096  0.31395508    -0.03600
C98         C  0.36953380  0.49078844  0.11417901     0.95600
O99         O  0.45923599  0.38671335  0.11293285    -0.79800
C100        C  0.47806169  0.35662040  0.13489922     0.95600
O101        O  0.47551426  0.64701542  0.18829339    -0.79800
Mg102      Mg  0.53262764  0.54972798  0.37021167     1.58200
O103        O  0.39519992  0.46169900  0.11731394    -0.78200
O104        O  0.61868065  0.47671332  0.37720276    -0.79900
O105        O  0.51298344  0.02738542  0.15884808    -0.85400
C106        C  0.56508708  0.05597341  0.31049941     0.90600
Mg107      Mg  0.45008087  0.03626843  0.13728074     1.58100
O108        O  0.55699951  0.95106985  0.28433366    -0.85200
O109        O  0.56053142  0.97964968  0.15960857    -0.72500
C110        C  0.36326712  0.96003289  0.36379719     0.95600
O111        O  0.48741923  0.09636086  0.24672422    -0.72300
O112        O  0.35291864  0.97900449  0.31918838    -0.79800
Mg113      Mg  0.54418715  0.07789294  0.19567604     1.58000
C114        C  0.50922409  0.87309413  0.39317509     0.95600
O115        O  0.59894945  0.06182203  0.13889790    -0.78100
H116        H  0.56743770  0.90355983  0.23321063    -0.03400
C117        C  0.46576922  0.00558360  0.37100009     0.90500
O118        O  0.43854227  0.96792008  0.15235910    -0.72600
O119        O  0.56425759  0.03989163  0.26324365    -0.85400
O120        O  0.53831079  0.89876199  0.39005667    -0.78200
C121        C  0.64330969  0.98174769  0.37244056     0.95700
C122        C  0.63297905  0.04345242  0.14353854     0.95500
Mg123      Mg  0.45207035  0.92561360  0.31168562     1.58000
O124        O  0.39729965  0.94167090  0.36845810    -0.78100
O125        O  0.50884169  0.90716179  0.26064813    -0.72300
O126        O  0.64216192  0.99510809  0.32150029    -0.78200
O127        O  0.52306317  0.12229245  0.13025028    -0.79900
O128        O  0.35408726  0.00843202  0.18585273    -0.78200
C129        C  0.54565824  0.91976450  0.25920691     0.90000
O130        O  0.43199703  0.96362762  0.24412166    -0.85300
O131        O  0.48326105  0.97612060  0.34854483    -0.85400
O132        O  0.43569942  0.02384327  0.34778252    -0.72500
Mg133      Mg  0.59939284  0.98783350  0.24082124     1.58000
O134        O  0.61325283  0.96287465  0.39441908    -0.79900
H135        H  0.51937990  0.98687631  0.09617485    -0.03600
O136        O  0.43925234  0.05245485  0.22306665    -0.85100
H137        H  0.42883043  0.09996668  0.27419451    -0.03400
H138        H  0.42503838  0.91519910  0.19348385    -0.03600
C139        C  0.45060229  0.08375885  0.24818965     0.89900
C140        C  0.53046203  0.99791328  0.13639643     0.90500
C141        C  0.43114941  0.94755218  0.19686312     0.90600
H142        H  0.47683912  0.01661557  0.41123079    -0.03600
O143        O  0.55768480  0.03561160  0.35500600    -0.72600
Mg144      Mg  0.39685273  0.01567561  0.26655158     1.58000
H145        H  0.57118640  0.08832915  0.31387274    -0.03600
C146        C  0.48704076  0.13042104  0.11423213     0.95600
O147        O  0.38301562  0.04070142  0.11298036    -0.79800
C148        C  0.35295160  0.02182511  0.13492753     0.95600
O149        O  0.64332966  0.02446585  0.18813415    -0.79800
Mg150      Mg  0.54616986  0.96726419  0.37011723     1.58200
O151        O  0.45794675  0.10476624  0.11737860    -0.78200
O152        O  0.47320917  0.88120243  0.37709955    -0.79900
O153        O  0.02377802  0.98710355  0.15870335    -0.85400
C154        C  0.05235765  0.93498330  0.31036019     0.90600
Mg155      Mg  0.03270458  0.04999323  0.13712318     1.58100
O156        O  0.94745825  0.94323303  0.28426859    -0.85200
O157        O  0.97598215  0.93962773  0.15951896    -0.72500
C158        C  0.95672768  0.13694874  0.36370312     0.95600
O159        O  0.09282620  0.01258382  0.24651017    -0.72300
O160        O  0.97569505  0.14725337  0.31907392    -0.79800
Mg161      Mg  0.07426419  0.95583586  0.19550011     1.58000
C162        C  0.86957916  0.99110804  0.39316221     0.96800
O163        O  0.05809606  0.90108624  0.13875648    -0.78100
H164        H  0.89990702  0.93285924  0.23320124    -0.03400
C165        C  0.00212673  0.03436755  0.37088829     0.90500
O166        O  0.96438250  0.06161355  0.15228747    -0.72600
O167        O  0.03626313  0.93582840  0.26311330    -0.85400
O168        O  0.89521115  0.96198774  0.39000630    -0.78200
C169        C  0.97802502  0.85686115  0.37235784     0.95700
C170        C  0.03967946  0.86708661  0.14343954     0.95500
Mg171      Mg  0.92214273  0.04819539  0.31166412     1.58000
O172        O  0.93831345  0.10294865  0.36840236    -0.78100
O173        O  0.90358603  0.99144879  0.26065036    -0.72300
O174        O  0.99137761  0.85798692  0.32141406    -0.78200
O175        O  0.11866167  0.97690389  0.13002437    -0.79900
O176        O  0.00503542  0.14603792  0.18573831    -0.78200
C177        C  0.91615088  0.95461621  0.25918082     0.90000
O178        O  0.96014684  0.06820044  0.24405167    -0.85300
O179        O  0.97262433  0.01692648  0.34846928    -0.85400
O180        O  0.02042296  0.06440150  0.34764118    -0.72500
Mg181      Mg  0.98414596  0.90077240  0.24074224     1.58000
O182        O  0.95921784  0.88695679  0.39434815    -0.79900
H183        H  0.98324569  0.98075190  0.09605559    -0.03600
O184        O  0.04895249  0.06079757  0.22289128    -0.85100
H185        H  0.09650841  0.07117599  0.27394892    -0.03400
H186        H  0.91170131  0.07519779  0.19345759    -0.03600
C187        C  0.08026222  0.04941677  0.24797536     0.89900
C188        C  0.99427885  0.96966287  0.13627731     0.90500
C189        C  0.94404871  0.06904995  0.19680790     0.90600
H190        H  0.01316263  0.02328060  0.41110965    -0.03600
O191        O  0.03201949  0.94241728  0.35487842    -0.72600
Mg192      Mg  0.01226329  0.10325662  0.26641411     1.58000
H193        H  0.08470585  0.92884057  0.31371545    -0.03600
C194        C  0.12680671  0.01292072  0.11398804     0.95600
O195        O  0.03718783  0.11705714  0.11280668    -0.79800
C196        C  0.01838576  0.14715585  0.13479328     0.95600
O197        O  0.02070758  0.85677584  0.18806317    -0.79800
Mg198      Mg  0.96369424  0.95403162  0.37004121     1.58200
O199        O  0.10117424  0.04203823  0.11714715    -0.78200
O200        O  0.87773377  0.02712602  0.37713617    -0.79900
O201        O  0.98327213  0.47637348  0.15884031    -0.85400
C202        C  0.93124275  0.44771529  0.31053159     0.90600
Mg203      Mg  0.04615681  0.46749760  0.13718529     1.58100
O204        O  0.93940522  0.55262465  0.28443118    -0.85200
O205        O  0.93574079  0.52411982  0.15969126    -0.72500
C206        C  0.13318247  0.54345840  0.36368309     0.95600
O207        O  0.00885886  0.40732176  0.24659348    -0.72300
O208        O  0.14348162  0.52452611  0.31902303    -0.79800
Mg209      Mg  0.95206873  0.42584731  0.19564504     1.58000
C210        C  0.98726742  0.63052658  0.39325018     0.95600
O211        O  0.89727400  0.44198790  0.13896497    -0.78100
H212        H  0.92898425  0.60017846  0.23337507    -0.03400
C213        C  0.03062905  0.49799569  0.37095013     0.90500
O214        O  0.05773247  0.53582559  0.15234565    -0.72600
O215        O  0.93205551  0.46381946  0.26328800    -0.85400
O216        O  0.95817237  0.60487269  0.39009899    -0.78200
C217        C  0.85309364  0.52201684  0.37260550     0.95700
C218        C  0.86325771  0.46037228  0.14369284     0.95500
Mg219      Mg  0.04436984  0.57800240  0.31175348     1.58000
O220        O  0.09916687  0.56184268  0.36843456    -0.78100
O221        O  0.98758145  0.59653101  0.26079444    -0.72300
O222        O  0.85420598  0.50866024  0.32166493    -0.78200
O223        O  0.97314820  0.38146767  0.13013726    -0.79900
O224        O  0.14222684  0.49517403  0.18570817    -0.78200
C225        C  0.95075930  0.58394238  0.25933976     0.90000
O226        O  0.06437670  0.54003477  0.24410230    -0.85300
O227        O  0.01315075  0.52748887  0.34855248    -0.85400
O228        O  0.06067496  0.47973325  0.34767799    -0.72500
Mg229      Mg  0.89694423  0.51591678  0.24095565     1.58000
O230        O  0.88319050  0.54083205  0.39456822    -0.79900
H231        H  0.97684472  0.51690106  0.09619391    -0.03600
O232        O  0.05702476  0.45123135  0.22293403    -0.85100
H233        H  0.06746517  0.40367250  0.27397296    -0.03400
H234        H  0.07130872  0.58850256  0.19352539    -0.03600
C235        C  0.04568114  0.41990943  0.24802366     0.89900
C236        C  0.96578761  0.50585585  0.13642649     0.90500
C237        C  0.06518557  0.55614945  0.19686629     0.90600
H238        H  0.01956925  0.48694126  0.41117640    -0.03600
O239        O  0.93868343  0.46805094  0.35504741    -0.72600
Mg240      Mg  0.09948272  0.48793249  0.26641588     1.58000
H241        H  0.92512317  0.41536206  0.31388481    -0.03600
C242        C  0.00917228  0.37336544  0.11408892     0.95600
O243        O  0.11320980  0.46305212  0.11278726    -0.79800
C244        C  0.14332401  0.48182991  0.13476050     0.95600
O245        O  0.85294979  0.47932017  0.18833726    -0.79800
Mg246      Mg  0.95025866  0.53638519  0.37018835     1.58200
O247        O  0.03825124  0.39903497  0.11722514    -0.78200
O248        O  0.02329843  0.62238652  0.37726601    -0.79900
C249        C  0.81052644  0.47203260  0.06246258    -0.10400
C250        C  0.83668427  0.46295802  0.09585687    -0.11900
C251        C  0.81771085  0.51421382  0.40834177    -0.10400
C252        C  0.79172611  0.50760502  0.44408294    -0.11900
C253        C  0.66629347  0.52007360  0.41680436    -0.10400
C254        C  0.69736675  0.51953432  0.44376858    -0.11900
C255        C  0.15976430  0.54084396  0.41150754    -0.10400
C256        C  0.18592344  0.53171457  0.44487181    -0.11900
C257        C  0.17871190  0.48959568  0.09902538    -0.10400
C258        C  0.20469190  0.49614754  0.06326086    -0.11900
C259        C  0.29900596  0.48401729  0.06353344    -0.10400
C260        C  0.33005407  0.48346591  0.09054838    -0.11900
C261        C  0.48046896  0.20098364  0.06367157    -0.10400
C262        C  0.47973785  0.16992055  0.09064776    -0.11900
C263        C  0.53730804  0.34024437  0.41165929    -0.10400
C264        C  0.52835997  0.31408145  0.44511284    -0.11900
C265        C  0.49257361  0.29529170  0.06339699    -0.10400
C266        C  0.48589988  0.32125408  0.09914647    -0.11900
C267        C  0.51652579  0.83360199  0.41679503    -0.10400
C268        C  0.51580893  0.80254505  0.44379052    -0.11900
C269        C  0.46797506  0.68944411  0.06240089    -0.10400
C270        C  0.45901299  0.66327947  0.09584674    -0.11900
C271        C  0.51038967  0.68225607  0.40835445    -0.10400
C272        C  0.50372659  0.70822593  0.44409738    -0.11900
C273        C  0.19737268  0.01953305  0.06342507    -0.10400
C274        C  0.16630229  0.02020231  0.09038617    -0.11900
C275        C  0.31055966  0.97161608  0.44507795    -0.10400
C276        C  0.33671959  0.96256512  0.41167124    -0.11900
C277        C  0.31759649  0.01398206  0.09916631    -0.10400
C278        C  0.29166633  0.00734974  0.06336328    -0.11900
C279        C  0.79899024  0.98450398  0.44368860    -0.10400
C280        C  0.83007120  0.98382950  0.41674346    -0.11900
C281        C  0.65953205  0.04096082  0.09566409    -0.10400
C282        C  0.68570636  0.03202058  0.06222078    -0.11900
C283        C  0.70462779  0.99634881  0.44391595    -0.10400
C284        C  0.67867337  0.98963455  0.40817316    -0.11900
C285        C  0.95932132  0.16350969  0.41154999    -0.10400
C286        C  0.96842308  0.18966930  0.44492404    -0.11900
C287        C  0.01058486  0.18254064  0.09906552    -0.10400
C288        C  0.00399474  0.20850285  0.06328870    -0.11900
C289        C  0.01652261  0.33388043  0.09049485    -0.10400
C290        C  0.01601066  0.30282235  0.06350361    -0.11900
C291        C  0.03709254  0.84053401  0.09558004    -0.10400
C292        C  0.02801034  0.81437652  0.06219049    -0.11900
C293        C  0.99243615  0.79549835  0.44383939    -0.10400
C294        C  0.98583003  0.82146898  0.40807664    -0.11900
C295        C  0.98046843  0.70114089  0.44368144    -0.10400
C296        C  0.97993040  0.67004399  0.41676784    -0.11900
N297        N  0.99929600  0.76748356  0.98862698    -0.00600
C298        C  0.98978226  0.72718884  0.99035149     0.02000
C299        C  0.99843965  0.71064136  0.54256057    -0.20900
C300        C  0.01390454  0.74164876  0.57473945    -0.21100
C301        C  0.01430074  0.77582873  0.54079739     0.01900
H302        H  0.99540822  0.67898224  0.55510769     0.15700
H303        H  0.02420618  0.73945059  0.61809349     0.15700
N304        N  0.99717007  0.23652271  0.51850005    -0.00600
C305        C  0.00672212  0.27680533  0.51679826     0.02000
C306        C  0.99809484  0.29337435  0.96459247    -0.20900
C307        C  0.98260931  0.26238708  0.93239211    -0.21100
C308        C  0.98217162  0.22820041  0.96632195     0.01900
H309        H  0.00115136  0.32503516  0.95206539     0.15700
H310        H  0.97231655  0.26460468  0.88903589     0.15700
N311        N  0.73264894  0.00338521  0.98863982    -0.00600
C312        C  0.77298317  0.99403493  0.99032485     0.02000
C313        C  0.78956378  0.00293910  0.54243084    -0.20900
C314        C  0.75853493  0.01838529  0.57459253    -0.21100
C315        C  0.72430801  0.01852534  0.54074225     0.01900
H316        H  0.82124311  0.00003699  0.55493176     0.15700
H317        H  0.76073816  0.02880359  0.61789275     0.15700
N318        N  0.26367069  0.00045186  0.51857022    -0.00600
C319        C  0.22339022  0.01001227  0.51680215     0.02000
C320        C  0.20683190  0.00124469  0.96463829    -0.20900
C321        C  0.23782399  0.98566811  0.93252671    -0.21100
C322        C  0.27200430  0.98531631  0.96646523     0.01900
H323        H  0.17518056  0.00430178  0.95207306     0.15700
H324        H  0.23562201  0.97529127  0.88920720     0.15700
N325        N  0.49674269  0.73628246  0.98879778    -0.00600
C326        C  0.50618662  0.77659459  0.99044948     0.02000
C327        C  0.49726587  0.79323374  0.54251695    -0.20900
C328        C  0.48171611  0.76226280  0.57468967    -0.21100
C329        C  0.48153371  0.72801137  0.54088318     0.01900
H330        H  0.50022592  0.82491600  0.55498168     0.15700
H331        H  0.47126555  0.76451942  0.61797070     0.15700
N332        N  0.49957393  0.26724055  0.51869483    -0.00600
C333        C  0.49012812  0.22693041  0.51702838     0.02000
C334        C  0.49907916  0.21029027  0.96497210    -0.20900
C335        C  0.51464839  0.24126058  0.93281803    -0.21100
C336        C  0.51481216  0.27551126  0.96662617     0.01900
H337        H  0.49612153  0.17860872  0.95250232     0.15700
H338        H  0.52511802  0.23900566  0.88954555     0.15700
N339        N  0.23273246  0.50292999  0.51848572    -0.00600
C340        C  0.27300705  0.49333423  0.51681136     0.02000
C341        C  0.28959510  0.50193107  0.96460713    -0.20900
C342        C  0.25863069  0.51744083  0.93238136    -0.21100
C343        C  0.22443651  0.51792392  0.96629340     0.01900
H344        H  0.32125463  0.49883613  0.95209554     0.15700
H345        H  0.26086893  0.52772029  0.88902014     0.15700
N346        N  0.76367981  0.50073474  0.98882890    -0.00600
C347        C  0.72337655  0.51021954  0.99048229     0.02000
C348        C  0.70678776  0.50153917  0.54265940    -0.20900
C349        C  0.73777676  0.48608866  0.57489033    -0.21100
C350        C  0.77198806  0.48572403  0.54101001     0.01900
H351        H  0.67511548  0.50454623  0.55515034     0.15700
H352        H  0.73554595  0.47577457  0.61823648     0.15700
O353        O  0.47255062  0.51667827  0.65889295    -0.85400
C354        C  0.44393936  0.56873319  0.81058237     0.90600
Mg355      Mg  0.46367259  0.45378090  0.63728252     1.58100
O356        O  0.54883608  0.56057663  0.78444070    -0.85200
O357        O  0.52029941  0.56420251  0.65971134    -0.72500
C358        C  0.53978714  0.36681780  0.86380824     0.95600
O359        O  0.40353653  0.49110975  0.74670974    -0.72300
O360        O  0.52076393  0.35650511  0.81922727    -0.79800
Mg361      Mg  0.42203465  0.54789195  0.69572396     1.58000
C362        C  0.62679133  0.51273692  0.89324363     0.95600
O363        O  0.43813090  0.60268434  0.63901859    -0.78100
H364        H  0.59636199  0.57100400  0.73334395    -0.03400
C365        C  0.49426530  0.46935894  0.87104143     0.90500
O366        O  0.53200241  0.44219976  0.65242010    -0.72600
O367        O  0.46002687  0.56791885  0.76332802    -0.85400
O368        O  0.60111731  0.54182161  0.89012697    -0.78200
C369        C  0.51822188  0.64688779  0.87260261     0.95700
C370        C  0.45651473  0.63670215  0.64369420     0.95500
Mg371      Mg  0.57425884  0.45562128  0.81175996     1.58000
O372        O  0.55818026  0.40083140  0.86846698    -0.78100
O373        O  0.59273809  0.51240289  0.76076300    -0.72300
O374        O  0.50485851  0.64577386  0.82166418    -0.78200
O375        O  0.37763569  0.52680555  0.63025400    -0.79900
O376        O  0.49141316  0.35773189  0.68584472    -0.78200
C377        C  0.58014420  0.54922598  0.75932452     0.90000
O378        O  0.53625185  0.43558994  0.74417869    -0.85300
O379        O  0.52374980  0.48682927  0.84861518    -0.85400
O380        O  0.47598687  0.43931711  0.84779166    -0.72500
Mg381      Mg  0.51211236  0.60302650  0.74095492     1.58000
O382        O  0.53705902  0.61679814  0.89455921    -0.79900
H383        H  0.51307261  0.52308373  0.59623736    -0.03600
O384        O  0.44743945  0.44293157  0.72305030    -0.85100
H385        H  0.39990013  0.43250843  0.77412558    -0.03400
H386        H  0.58469490  0.42862997  0.69356635    -0.03600
C387        C  0.41612645  0.45428515  0.74815305     0.89900
C388        C  0.50203133  0.53415312  0.63646576     0.90500
C389        C  0.55234463  0.43476026  0.69692974     0.90600
H390        H  0.48322746  0.48042845  0.91127130    -0.03600
O391        O  0.46428981  0.56129484  0.85508711    -0.72600
Mg392      Mg  0.48416420  0.40048661  0.76655260     1.58000
H393        H  0.41158728  0.57485100  0.81395519    -0.03600
C394        C  0.36953379  0.49078847  0.61417889     0.95600
O395        O  0.45923594  0.38671335  0.61293301    -0.79800
C396        C  0.47806168  0.35662041  0.63489933     0.95600
O397        O  0.47551428  0.64701549  0.68829332    -0.79800
Mg398      Mg  0.53262766  0.54972798  0.87021178     1.58200
O399        O  0.39519990  0.46169902  0.61731383    -0.78200
O400        O  0.61868068  0.47671336  0.87720265    -0.79900
O401        O  0.51298345  0.02738541  0.65884832    -0.85400
C402        C  0.56508706  0.05597343  0.81049943     0.90600
Mg403      Mg  0.45008086  0.03626831  0.63728078     1.58100
O404        O  0.55699949  0.95106985  0.78433359    -0.85200
O405        O  0.56053145  0.97964968  0.65960881    -0.72500
C406        C  0.36326720  0.96003292  0.86379728     0.95600
O407        O  0.48741920  0.09636092  0.74672417    -0.72300
O408        O  0.35291864  0.97900448  0.81918846    -0.79800
Mg409      Mg  0.54418714  0.07789298  0.69567611     1.58000
C410        C  0.50922409  0.87309415  0.89317509     0.95600
O411        O  0.59894942  0.06182206  0.63889785    -0.78100
H412        H  0.56743766  0.90355988  0.73321045    -0.03400
C413        C  0.46576919  0.00558362  0.87100018     0.90500
O414        O  0.43854226  0.96791990  0.65235934    -0.72600
O415        O  0.56425758  0.03989160  0.76324370    -0.85400
O416        O  0.53831075  0.89876206  0.89005684    -0.78200
C417        C  0.64330971  0.98174772  0.87244052     0.95700
C418        C  0.63297902  0.04345244  0.64353845     0.95500
Mg419      Mg  0.45207046  0.92561366  0.81168573     1.58000
O420        O  0.39729978  0.94167098  0.86845813    -0.78100
O421        O  0.50884168  0.90716181  0.76064806    -0.72300
O422        O  0.64216196  0.99510810  0.82150024    -0.78200
O423        O  0.52306314  0.12229248  0.63025024    -0.79900
O424        O  0.35408727  0.00843207  0.68585273    -0.78200
C425        C  0.54565822  0.91976453  0.75920680     0.90000
O426        O  0.43199705  0.96362765  0.74412192    -0.85300
O427        O  0.48326108  0.97612067  0.84854485    -0.85400
O428        O  0.43569940  0.02384331  0.84778258    -0.72500
Mg429      Mg  0.59939284  0.98783343  0.74082123     1.58000
O430        O  0.61325284  0.96287469  0.89441900    -0.79900
H431        H  0.51938006  0.98687642  0.59617487    -0.03600
O432        O  0.43925232  0.05245484  0.72306676    -0.85100
H433        H  0.42883039  0.09996685  0.77419438    -0.03400
H434        H  0.42503828  0.91519901  0.69348443    -0.03600
C435        C  0.45060227  0.08375890  0.74818962     0.89900
C436        C  0.53046213  0.99791335  0.63639672     0.90500
C437        C  0.43114936  0.94755212  0.69686347     0.90600
H438        H  0.47683901  0.01661552  0.91123089    -0.03600
O439        O  0.55768479  0.03561166  0.85500604    -0.72600
Mg440      Mg  0.39685271  0.01567565  0.76655172     1.58000
H441        H  0.57118637  0.08832917  0.81387271    -0.03600
C442        C  0.48704073  0.13042104  0.61423204     0.95600
O443        O  0.38301559  0.04070140  0.61298025    -0.79800
C444        C  0.35295157  0.02182513  0.63492751     0.95600
O445        O  0.64332963  0.02446584  0.68813403    -0.79800
Mg446      Mg  0.54616986  0.96726424  0.87011721     1.58200
O447        O  0.45794673  0.10476621  0.61737849    -0.78200
O448        O  0.47320920  0.88120244  0.87709948    -0.79900
O449        O  0.02377799  0.98710350  0.65870358    -0.85400
C450        C  0.05235777  0.93498327  0.81036044     0.90600
Mg451      Mg  0.03270456  0.04999311  0.63712314     1.58100
O452        O  0.94745817  0.94323290  0.78426876    -0.85200
O453        O  0.97598212  0.93962771  0.65951923    -0.72500
C454        C  0.95672766  0.13694880  0.86370304     0.95600
O455        O  0.09282612  0.01258372  0.74651040    -0.72300
O456        O  0.97569503  0.14725341  0.81907383    -0.79800
Mg457      Mg  0.07426418  0.95583586  0.69550015     1.58000
C458        C  0.86957916  0.99110802  0.89316214     0.96800
O459        O  0.05809603  0.90108629  0.63875638    -0.78100
H460        H  0.89990705  0.93285933  0.73320106    -0.03400
C461        C  0.00212674  0.03436751  0.87088826     0.90500
O462        O  0.96438247  0.06161332  0.65228751    -0.72600
O463        O  0.03626318  0.93582843  0.76311350    -0.85400
O464        O  0.89521119  0.96198776  0.89000622    -0.78200
C465        C  0.97802500  0.85686118  0.87235774     0.95700
C466        C  0.03967944  0.86708667  0.64343943     0.95500
Mg467      Mg  0.92214270  0.04819542  0.81166413     1.58000
O468        O  0.93831343  0.10294871  0.86840227    -0.78100
O469        O  0.90358607  0.99144877  0.76065056    -0.72300
O470        O  0.99137759  0.85798694  0.82141396    -0.78200
O471        O  0.11866163  0.97690393  0.63002427    -0.79900
O472        O  0.00503540  0.14603792  0.68573833    -0.78200
C473        C  0.91615090  0.95461622  0.75918091     0.90000
O474        O  0.96014683  0.06820047  0.74405166    -0.85300
O475        O  0.97262425  0.01692648  0.84846950    -0.85400
O476        O  0.02042299  0.06440139  0.84764102    -0.72500
Mg477      Mg  0.98414596  0.90077240  0.74074230     1.58000
O478        O  0.95921781  0.88695681  0.89434810    -0.79900
H479        H  0.98324572  0.98075177  0.59605564    -0.03600
O480        O  0.04895254  0.06079755  0.72289122    -0.85100
H481        H  0.09650826  0.07117581  0.77394912    -0.03400
H482        H  0.91170134  0.07519786  0.69345753    -0.03600
C483        C  0.08026221  0.04941674  0.74797556     0.89900
C484        C  0.99427887  0.96966277  0.63627762     0.90500
C485        C  0.94404870  0.06904992  0.69680789     0.90600
H486        H  0.01316275  0.02328053  0.91110967    -0.03600
O487        O  0.03201953  0.94241709  0.85487871    -0.72600
Mg488      Mg  0.01226328  0.10325661  0.76641404     1.58000
H489        H  0.08470584  0.92884068  0.81371569    -0.03600
C490        C  0.12680668  0.01292075  0.61398793     0.95600
O491        O  0.03718776  0.11705715  0.61280664    -0.79800
C492        C  0.01838575  0.14715588  0.63479332     0.95600
O493        O  0.02070756  0.85677588  0.68806305    -0.79800
Mg494      Mg  0.96369423  0.95403160  0.87004138     1.58200
O495        O  0.10117421  0.04203825  0.61714705    -0.78200
O496        O  0.87773369  0.02712603  0.87713610    -0.79900
O497        O  0.98327211  0.47637351  0.65884020    -0.85400
C498        C  0.93124273  0.44771532  0.81053161     0.90600
Mg499      Mg  0.04615680  0.46749765  0.63718526     1.58100
O500        O  0.93940529  0.55262453  0.78443111    -0.85200
O501        O  0.93574077  0.52411986  0.65969114    -0.72500
C502        C  0.13318246  0.54345845  0.86368311     0.95600
O503        O  0.00885884  0.40732180  0.74659337    -0.72300
O504        O  0.14348157  0.52452620  0.81902301    -0.79800
Mg505      Mg  0.95206873  0.42584734  0.69564500     1.58000
C506        C  0.98726740  0.63052660  0.89325004     0.95600
O507        O  0.89727397  0.44198791  0.63896508    -0.78100
H508        H  0.92898406  0.60017855  0.73337551    -0.03400
C509        C  0.03062910  0.49799574  0.87095017     0.90500
O510        O  0.05773245  0.53582564  0.65234574    -0.72600
O511        O  0.93205546  0.46381945  0.76328798    -0.85400
O512        O  0.95817235  0.60487271  0.89009885    -0.78200
C513        C  0.85309362  0.52201688  0.87260538     0.95700
C514        C  0.86325769  0.46037232  0.64369281     0.95500
Mg515      Mg  0.04436985  0.57800240  0.81175343     1.58000
O516        O  0.09916685  0.56184269  0.86843467    -0.78100
O517        O  0.98758139  0.59653100  0.76079441    -0.72300
O518        O  0.85420595  0.50866027  0.82166481    -0.78200
O519        O  0.97314824  0.38146773  0.63013724    -0.79900
O520        O  0.14222677  0.49517405  0.68570818    -0.78200
C521        C  0.95075924  0.58394236  0.75933988     0.90000
O522        O  0.06437664  0.54003466  0.74410243    -0.85300
O523        O  0.01315081  0.52748893  0.84855250    -0.85400
O524        O  0.06067497  0.47973322  0.84767804    -0.72500
Mg525      Mg  0.89694421  0.51591678  0.74095555     1.58000
O526        O  0.88319048  0.54083209  0.89456809    -0.79900
H527        H  0.97684473  0.51690114  0.59619381    -0.03600
O528        O  0.05702475  0.45123139  0.72293399    -0.85100
H529        H  0.06746515  0.40367251  0.77397285    -0.03400
H530        H  0.07130870  0.58850252  0.69352576    -0.03600
C531        C  0.04568112  0.41990945  0.74802357     0.89900
C532        C  0.96578759  0.50585589  0.63642641     0.90500
C533        C  0.06518556  0.55614940  0.69686648     0.90600
H534        H  0.01956927  0.48694134  0.91117642    -0.03600
O535        O  0.93868342  0.46805101  0.85504740    -0.72600
Mg536      Mg  0.09948270  0.48793248  0.76641594     1.58000
H537        H  0.92512312  0.41536210  0.81388486    -0.03600
C538        C  0.00917235  0.37336545  0.61408911     0.95600
O539        O  0.11320979  0.46305217  0.61278716    -0.79800
C540        C  0.14332398  0.48182995  0.63476050     0.95600
O541        O  0.85294972  0.47932026  0.68833718    -0.79800
Mg542      Mg  0.95025867  0.53638521  0.87018826     1.58200
O543        O  0.03825131  0.39903499  0.61722536    -0.78200
O544        O  0.02329841  0.62238655  0.87726587    -0.79900
C545        C  0.81052641  0.47203242  0.56246251    -0.10400
C546        C  0.83668429  0.46295797  0.59585677    -0.11900
C547        C  0.81771083  0.51421386  0.90834166    -0.10400
C548        C  0.79172609  0.50760506  0.94408285    -0.11900
C549        C  0.66629350  0.52007364  0.91680423    -0.10400
C550        C  0.69736675  0.51953435  0.94376852    -0.11900
C551        C  0.15976432  0.54084398  0.91150752    -0.10400
C552        C  0.18592340  0.53171461  0.94487188    -0.11900
C553        C  0.17871192  0.48959573  0.59902550    -0.10400
C554        C  0.20469191  0.49614759  0.56326099    -0.11900
C555        C  0.29900591  0.48401708  0.56353343    -0.10400
C556        C  0.33005406  0.48346589  0.59054829    -0.11900
C557        C  0.48046893  0.20098361  0.56367145    -0.10400
C558        C  0.47973782  0.16992055  0.59064767    -0.11900
C559        C  0.53730808  0.34024432  0.91165922    -0.10400
C560        C  0.52835995  0.31408144  0.94511279    -0.11900
C561        C  0.49257361  0.29529166  0.56339704    -0.10400
C562        C  0.48589988  0.32125411  0.59914651    -0.11900
C563        C  0.51652582  0.83360198  0.91679495    -0.10400
C564        C  0.51580909  0.80254504  0.94379045    -0.11900
C565        C  0.46797502  0.68944411  0.56240079    -0.10400
C566        C  0.45901296  0.66327947  0.59584663    -0.11900
C567        C  0.51038967  0.68225603  0.90835453    -0.10400
C568        C  0.50372657  0.70822591  0.94409741    -0.11900
C569        C  0.19737268  0.01953308  0.56342505    -0.10400
C570        C  0.16630225  0.02020235  0.59038609    -0.11900
C571        C  0.31055963  0.97161593  0.94507798    -0.10400
C572        C  0.33671967  0.96256507  0.91167135    -0.11900
C573        C  0.31759644  0.01398203  0.59916637    -0.10400
C574        C  0.29166631  0.00734963  0.56336333    -0.11900
C575        C  0.79899029  0.98450396  0.94368856    -0.10400
C576        C  0.83007128  0.98382940  0.91674352    -0.11900
C577        C  0.65953201  0.04096086  0.59566398    -0.10400
C578        C  0.68570633  0.03202062  0.56222068    -0.11900
C579        C  0.70462776  0.99634882  0.94391602    -0.10400
C580        C  0.67867337  0.98963456  0.90817319    -0.11900
C581        C  0.95932137  0.16350971  0.91154993    -0.10400
C582        C  0.96842321  0.18966925  0.94492405    -0.11900
C583        C  0.01058484  0.18254070  0.59906564    -0.10400
C584        C  0.00399477  0.20850286  0.56328875    -0.11900
C585        C  0.01652272  0.33388042  0.59049505    -0.10400
C586        C  0.01601084  0.30282238  0.56350367    -0.11900
C587        C  0.03709259  0.84053406  0.59557994    -0.10400
C588        C  0.02801051  0.81437652  0.56219042    -0.11900
C589        C  0.99243613  0.79549834  0.94383930    -0.10400
C590        C  0.98583001  0.82146899  0.90807654    -0.11900
C591        C  0.98046842  0.70114081  0.94368149    -0.10400
C592        C  0.97993038  0.67004399  0.91676775    -0.11900
loop_ 
_geom_bond_atom_site_label_1 
_geom_bond_atom_site_label_2 
_geom_bond_distance 
_geom_bond_site_symmetry_2 
_ccdc_geom_bond_type 
N1            C2   1.356       .  A
N1          C301   1.357   1_655  A
N1          C293   1.420       .  S
C2          C295   1.429       .  S
C2          C299   1.379       .  A
C3            C4   1.367   1_655  A
C3          C298   1.379   1_554  A
C3            H6   1.083       .  S
C4            C5   1.378       .  A
C4            H7   1.083       .  S
C5          N297   1.357   1_454  A
C5          C292   1.432       .  S
N8            C9   1.356   1_655  A
N8          C308   1.357   1_554  A
N8          C288   1.420   1_655  S
C9          C290   1.429       .  S
C9          C306   1.379   1_454  A
C10          C11   1.367       .  A
C10         C305   1.379   1_655  A
C10          H13   1.083   1_655  S
C11          C12   1.378       .  A
C11          H14   1.083       .  S
C12         N304   1.357       .  A
C12         C286   1.432       .  S
N15          C16   1.356   1_545  A
N15         C315   1.357       .  A
N15         C283   1.420   1_545  S
C16         C279   1.429       .  S
C16         C313   1.379   1_565  A
C17          C18   1.367       .  A
C17         C312   1.379   1_544  A
C17          H20   1.083       .  S
C18          C19   1.378       .  A
C18          H21   1.083       .  S
C19         N311   1.357   1_554  A
C19         C282   1.432       .  S
N22          C23   1.356       .  A
N22         C322   1.357   1_544  A
N22         C278   1.420       .  S
C23         C273   1.429       .  S
C23         C320   1.379   1_554  A
C24          C25   1.367   1_545  A
C24         C319   1.379       .  A
C24          H27   1.083       .  S
C25          C26   1.378       .  A
C25          H28   1.083       .  S
C26         N318   1.357   1_565  A
C26         C275   1.432       .  S
N29          C30   1.356       .  A
N29         C329   1.357       .  A
N29         C272   1.420       .  S
C30         C268   1.429       .  S
C30         C327   1.379       .  A
C31          C32   1.367       .  A
C31         C326   1.379   1_554  A
C31          H34   1.083       .  S
C32          C33   1.378       .  A
C32          H35   1.083       .  S
C33         N325   1.357   1_554  A
C33         C269   1.432       .  S
N36          C37   1.356       .  A
N36         C336   1.357   1_554  A
N36         C265   1.420       .  S
C37         C261   1.429       .  S
C37         C334   1.379   1_554  A
C38          C39   1.367       .  A
C38         C333   1.379       .  A
C38          H41   1.083       .  S
C39          C40   1.378       .  A
C39          H42   1.083       .  S
C40         N332   1.357       .  A
C40         C264   1.432       .  S
N43          C44   1.356       .  A
N43         C343   1.357   1_554  A
N43         C258   1.420       .  S
C44         C259   1.429       .  S
C44         C341   1.379   1_554  A
C45          C46   1.367       .  A
C45         C340   1.379       .  A
C45          H48   1.083       .  S
C46          C47   1.378       .  A
C46          H49   1.083       .  S
C47         N339   1.357       .  A
C47         C256   1.432       .  S
N50          C51   1.356       .  A
N50         C350   1.357       .  A
N50         C252   1.420       .  S
C51         C254   1.429       .  S
C51         C348   1.379       .  A
C52          C53   1.367       .  A
C52         C347   1.379   1_554  A
C52          H55   1.083       .  S
C53          C54   1.378       .  A
C53          H56   1.083       .  S
C54         N346   1.357   1_554  A
C54         C249   1.432       .  S
O57         Mg59   2.142       .  S
O57         Mg65   2.131       .  S
O57          C92   1.241       .  S
C58          H97   1.081       .  S
C58          O71   1.237       .  S
C58          O95   1.270       .  A
Mg59         O88   2.129       .  S
Mg59        O103   2.306       .  S
Mg59         O99   2.275       .  S
Mg59         O70   2.297       .  S
O60        Mg102   2.129       .  S
O60         Mg85   2.106       .  S
O60          C81   1.242       .  S
O61          C92   1.276       .  A
O61         Mg85   2.321       .  S
C62         C263   1.431       .  S
C62          O64   1.271       .  A
C62          O76   1.271       .  A
O63          C91   1.275       .  A
O63         Mg65   2.298       .  S
O64         Mg96   2.250       .  S
Mg65         O71   2.131       .  S
Mg65         O79   2.234       .  S
Mg65         O67   2.302       .  S
C66         C253   1.429       .  S
C66         O104   1.267       .  A
C66          O72   1.272       .  A
O67          C74   1.271       .  A
H68          C81   1.081       .  S
C69          H94   1.081       .  S
C69          O83   1.241       .  S
C69          O84   1.276       .  A
O70          C93   1.270       .  A
O71         Mg85   2.124       .  S
O72        Mg102   2.306       .  S
C73         C271   1.457       .  S
C73          O86   1.273       .  A
C73          O78   1.283       .  A
C74         C270   1.431       .  S
C74         O101   1.271       .  A
Mg75         O82   2.130       .  S
Mg75         O83   2.131       .  S
Mg75         O76   2.302       .  S
Mg75         O77   2.298       .  S
Mg75        O104   2.235       .  S
O77          C81   1.275       .  A
O78         Mg85   2.380       .  S
O79          C98   1.267       .  A
O80         C100   1.283       .  A
O80         Mg96   2.380       .  S
O82         Mg96   2.124       .  S
O82          C93   1.237       .  S
O83        Mg102   2.142       .  S
O84         Mg96   2.321       .  S
Mg85        O101   2.250       .  S
O86        Mg102   2.275       .  S
H87          C92   1.081       .  S
O88         Mg96   2.107       .  S
O88          C91   1.242       .  S
H89          C91   1.081       .  S
H90          C93   1.081       .  S
O95        Mg102   2.297       .  S
C98         C260   1.429       .  S
C98         O103   1.272       .  A
O99         C100   1.273       .  A
C100        C266   1.457       .  S
O105       Mg107   2.142       .  S
O105       Mg113   2.131       .  S
O105        C140   1.241   1_545  S
C106        H145   1.081       .  S
C106        O119   1.237       .  S
C106        O143   1.270       .  A
Mg107       O136   2.129       .  S
Mg107       O151   2.306       .  S
Mg107       O147   2.275       .  S
Mg107       O118   2.297   1_545  S
O108       Mg150   2.129       .  S
O108       Mg133   2.106       .  S
O108        C129   1.242       .  S
O109        C140   1.276       .  A
O109       Mg133   2.321       .  S
C110        C276   1.431       .  S
C110        O112   1.271       .  A
C110        O124   1.271       .  A
O111        C139   1.275       .  A
O111       Mg113   2.298       .  S
O112       Mg144   2.250   1_565  S
Mg113       O119   2.130       .  S
Mg113       O127   2.234       .  S
Mg113       O115   2.302       .  S
C114        C267   1.429       .  S
C114        O152   1.267       .  A
C114        O120   1.272       .  A
O115        C122   1.271       .  A
H116        C129   1.081       .  S
C117        H142   1.081       .  S
C117        O131   1.241   1_545  S
C117        O132   1.276       .  A
O118        C141   1.270       .  A
O119       Mg133   2.124   1_545  S
O120       Mg150   2.306       .  S
C121        C284   1.457       .  S
C121        O134   1.273       .  A
C121        O126   1.283       .  A
C122        C281   1.431       .  S
C122        O149   1.271       .  A
Mg123       O130   2.131       .  S
Mg123       O131   2.131       .  S
Mg123       O124   2.302       .  S
Mg123       O125   2.298       .  S
Mg123       O152   2.234       .  S
O125        C129   1.275       .  A
O126       Mg133   2.380       .  S
O127        C146   1.267       .  A
O128        C148   1.283       .  A
O128       Mg144   2.381       .  S
O130       Mg144   2.124   1_565  S
O130        C141   1.237       .  S
O131       Mg150   2.142       .  S
O132       Mg144   2.321       .  S
Mg133       O149   2.250   1_565  S
O134       Mg150   2.275       .  S
H135        C140   1.081       .  S
O136       Mg144   2.106       .  S
O136        C139   1.242       .  S
H137        C139   1.081       .  S
H138        C141   1.081       .  S
O143       Mg150   2.297   1_545  S
C146        C262   1.429       .  S
C146        O151   1.272       .  A
O147        C148   1.273       .  A
C148        C277   1.457       .  S
O153       Mg155   2.142   1_565  S
O153       Mg161   2.131       .  S
O153        C188   1.241   1_455  S
C154        H193   1.081       .  S
C154        O167   1.237       .  S
C154        O191   1.270       .  A
Mg155       O184   2.129       .  S
Mg155       O199   2.306       .  S
Mg155       O195   2.275       .  S
Mg155       O166   2.297   1_455  S
O156       Mg198   2.129       .  S
O156       Mg181   2.106       .  S
O156        C177   1.242       .  S
O157        C188   1.276       .  A
O157       Mg181   2.321       .  S
C158        C285   1.431       .  S
C158        O160   1.271       .  A
C158        O172   1.271       .  A
O159        C187   1.275       .  A
O159       Mg161   2.298   1_545  S
O160       Mg192   2.250   1_655  S
Mg161       O167   2.131       .  S
Mg161       O175   2.234       .  S
Mg161       O163   2.302       .  S
C162        C280   1.429       .  S
C162        O200   1.267   1_565  A
C162        O168   1.272       .  A
O163        C170   1.271       .  A
H164        C177   1.081       .  S
C165        H190   1.081       .  S
C165        O179   1.241   1_455  S
C165        O180   1.276       .  A
O166        C189   1.270       .  A
O167       Mg181   2.124   1_455  S
O168       Mg198   2.306       .  S
C169        C294   1.457       .  S
C169        O182   1.273       .  A
C169        O174   1.283       .  A
C170        C291   1.431       .  S
C170        O197   1.271       .  A
Mg171       O178   2.131       .  S
Mg171       O179   2.131       .  S
Mg171       O172   2.302       .  S
Mg171       O173   2.298   1_545  S
Mg171       O200   2.234       .  S
O173        C177   1.275       .  A
O174       Mg181   2.380       .  S
O175        C194   1.267   1_565  A
O176        C196   1.283       .  A
O176       Mg192   2.380       .  S
O178       Mg192   2.124   1_655  S
O178        C189   1.237       .  S
O179       Mg198   2.142   1_545  S
O180       Mg192   2.321       .  S
Mg181       O197   2.250   1_655  S
O182       Mg198   2.275       .  S
H183        C188   1.081       .  S
O184       Mg192   2.106       .  S
O184        C187   1.242       .  S
H185        C187   1.081       .  S
H186        C189   1.081       .  S
O191       Mg198   2.297   1_455  S
C194        C274   1.429       .  S
C194        O199   1.272       .  A
O195        C196   1.273       .  A
C196        C287   1.457       .  S
O201       Mg203   2.142   1_655  S
O201       Mg209   2.131       .  S
O201        C236   1.241       .  S
C202        H241   1.081       .  S
C202        O215   1.237       .  S
C202        O239   1.270       .  A
Mg203       O232   2.129       .  S
Mg203       O247   2.305       .  S
Mg203       O243   2.275       .  S
Mg203       O214   2.297       .  S
O204       Mg246   2.129       .  S
O204       Mg229   2.106       .  S
O204        C225   1.242       .  S
O205        C236   1.276       .  A
O205       Mg229   2.321       .  S
C206        C255   1.431       .  S
C206        O208   1.271       .  A
C206        O220   1.271       .  A
O207        C235   1.275       .  A
O207       Mg209   2.298   1_455  S
O208       Mg240   2.250       .  S
Mg209       O215   2.131       .  S
Mg209       O223   2.234       .  S
Mg209       O211   2.302       .  S
C210        C296   1.429       .  S
C210        O248   1.267   1_655  A
C210        O216   1.272       .  A
O211        C218   1.271       .  A
H212        C225   1.081       .  S
C213        H238   1.081       .  S
C213        O227   1.241       .  S
C213        O228   1.276       .  A
O214        C237   1.270       .  A
O215       Mg229   2.124       .  S
O216       Mg246   2.306       .  S
C217        C251   1.457       .  S
C217        O230   1.273       .  A
C217        O222   1.283       .  A
C218        C250   1.431       .  S
C218        O245   1.271       .  A
Mg219       O226   2.131       .  S
Mg219       O227   2.131       .  S
Mg219       O220   2.302       .  S
Mg219       O221   2.298   1_455  S
Mg219       O248   2.235       .  S
O221        C225   1.275       .  A
O222       Mg229   2.380       .  S
O223        C242   1.267   1_655  A
O224        C244   1.283       .  A
O224       Mg240   2.380       .  S
O226       Mg240   2.124       .  S
O226        C237   1.237       .  S
O227       Mg246   2.142   1_455  S
O228       Mg240   2.321       .  S
Mg229       O245   2.250       .  S
O230       Mg246   2.275       .  S
H231        C236   1.081       .  S
O232       Mg240   2.106       .  S
O232        C235   1.242       .  S
H233        C235   1.081       .  S
H234        C237   1.081       .  S
O239       Mg246   2.297       .  S
C242        C289   1.429       .  S
C242        O247   1.272       .  A
O243        C244   1.273       .  A
C244        C257   1.457       .  S
C249        C250   1.203       .  T
C251        C252   1.219       .  T
C253        C254   1.201       .  T
C255        C256   1.203       .  T
C257        C258   1.219       .  T
C259        C260   1.201       .  T
C261        C262   1.201       .  T
C263        C264   1.203       .  T
C265        C266   1.219       .  T
C267        C268   1.201       .  T
C269        C270   1.203       .  T
C271        C272   1.219       .  T
C273        C274   1.201       .  T
C275        C276   1.203       .  T
C277        C278   1.219       .  T
C279        C280   1.201       .  T
C281        C282   1.203       .  T
C283        C284   1.219       .  T
C285        C286   1.203       .  T
C287        C288   1.219       .  T
C289        C290   1.201       .  T
C291        C292   1.203       .  T
C293        C294   1.219       .  T
C295        C296   1.201       .  T
N297        C298   1.356       .  A
N297        C589   1.420       .  S
C298        C591   1.429       .  S
C299        C300   1.367   1_655  A
C299        H302   1.083       .  S
C300        C301   1.378       .  A
C300        H303   1.083       .  S
C301        C588   1.432       .  S
N304        C305   1.356   1_655  A
N304        C584   1.420   1_655  S
C305        C586   1.429       .  S
C306        C307   1.367       .  A
C306        H309   1.083   1_655  S
C307        C308   1.378       .  A
C307        H310   1.083       .  S
C308        C582   1.432       .  S
N311        C312   1.356   1_545  A
N311        C579   1.420   1_545  S
C312        C575   1.429       .  S
C313        C314   1.367       .  A
C313        H316   1.083       .  S
C314        C315   1.378       .  A
C314        H317   1.083       .  S
C315        C578   1.432       .  S
N318        C319   1.356       .  A
N318        C574   1.420       .  S
C319        C569   1.429       .  S
C320        C321   1.367   1_545  A
C320        H323   1.083       .  S
C321        C322   1.378       .  A
C321        H324   1.083       .  S
C322        C571   1.432       .  S
N325        C326   1.356       .  A
N325        C568   1.420       .  S
C326        C564   1.429       .  S
C327        C328   1.367       .  A
C327        H330   1.083       .  S
C328        C329   1.378       .  A
C328        H331   1.083       .  S
C329        C565   1.432       .  S
N332        C333   1.356       .  A
N332        C561   1.420       .  S
C333        C557   1.429       .  S
C334        C335   1.367       .  A
C334        H337   1.083       .  S
C335        C336   1.378       .  A
C335        H338   1.083       .  S
C336        C560   1.432       .  S
N339        C340   1.356       .  A
N339        C554   1.420       .  S
C340        C555   1.429       .  S
C341        C342   1.367       .  A
C341        H344   1.083       .  S
C342        C343   1.378       .  A
C342        H345   1.083       .  S
C343        C552   1.432       .  S
N346        C347   1.356       .  A
N346        C548   1.420       .  S
C347        C550   1.429       .  S
C348        C349   1.367       .  A
C348        H351   1.083       .  S
C349        C350   1.378       .  A
C349        H352   1.083       .  S
C350        C545   1.432       .  S
O353       Mg355   2.142       .  S
O353       Mg361   2.131       .  S
O353        C388   1.241       .  S
C354        H393   1.081       .  S
C354        O367   1.237       .  S
C354        O391   1.270       .  A
Mg355       O384   2.129       .  S
Mg355       O399   2.306       .  S
Mg355       O395   2.275       .  S
Mg355       O366   2.297       .  S
O356       Mg398   2.129       .  S
O356       Mg381   2.106       .  S
O356        C377   1.242       .  S
O357        C388   1.276       .  A
O357       Mg381   2.321       .  S
C358        C559   1.431       .  S
C358        O360   1.271       .  A
C358        O372   1.271       .  A
O359        C387   1.275       .  A
O359       Mg361   2.298       .  S
O360       Mg392   2.250       .  S
Mg361       O367   2.131       .  S
Mg361       O375   2.234       .  S
Mg361       O363   2.302       .  S
C362        C549   1.429       .  S
C362        O400   1.267       .  A
C362        O368   1.272       .  A
O363        C370   1.271       .  A
H364        C377   1.081       .  S
C365        H390   1.081       .  S
C365        O379   1.241       .  S
C365        O380   1.276       .  A
O366        C389   1.270       .  A
O367       Mg381   2.124       .  S
O368       Mg398   2.306       .  S
C369        C567   1.457       .  S
C369        O382   1.273       .  A
C369        O374   1.283       .  A
C370        C566   1.431       .  S
C370        O397   1.271       .  A
Mg371       O378   2.130       .  S
Mg371       O379   2.131       .  S
Mg371       O372   2.302       .  S
Mg371       O373   2.298       .  S
Mg371       O400   2.235       .  S
O373        C377   1.275       .  A
O374       Mg381   2.380       .  S
O375        C394   1.267       .  A
O376        C396   1.283       .  A
O376       Mg392   2.380       .  S
O378       Mg392   2.124       .  S
O378        C389   1.237       .  S
O379       Mg398   2.142       .  S
O380       Mg392   2.321       .  S
Mg381       O397   2.250       .  S
O382       Mg398   2.275       .  S
H383        C388   1.081       .  S
O384       Mg392   2.107       .  S
O384        C387   1.242       .  S
H385        C387   1.081       .  S
H386        C389   1.081       .  S
O391       Mg398   2.297       .  S
C394        C556   1.429       .  S
C394        O399   1.272       .  A
O395        C396   1.273       .  A
C396        C562   1.457       .  S
O401       Mg403   2.142       .  S
O401       Mg409   2.131       .  S
O401        C436   1.241   1_545  S
C402        H441   1.081       .  S
C402        O415   1.237       .  S
C402        O439   1.270       .  A
Mg403       O432   2.129       .  S
Mg403       O447   2.306       .  S
Mg403       O443   2.275       .  S
Mg403       O414   2.297   1_545  S
O404       Mg446   2.129       .  S
O404       Mg429   2.106       .  S
O404        C425   1.242       .  S
O405        C436   1.276       .  A
O405       Mg429   2.321       .  S
C406        C572   1.431       .  S
C406        O408   1.271       .  A
C406        O420   1.271       .  A
O407        C435   1.275       .  A
O407       Mg409   2.298       .  S
O408       Mg440   2.250   1_565  S
Mg409       O415   2.130       .  S
Mg409       O423   2.234       .  S
Mg409       O411   2.302       .  S
C410        C563   1.429       .  S
C410        O448   1.267       .  A
C410        O416   1.272       .  A
O411        C418   1.271       .  A
H412        C425   1.081       .  S
C413        H438   1.081       .  S
C413        O427   1.241   1_545  S
C413        O428   1.276       .  A
O414        C437   1.270       .  A
O415       Mg429   2.124   1_545  S
O416       Mg446   2.306       .  S
C417        C580   1.457       .  S
C417        O430   1.273       .  A
C417        O422   1.283       .  A
C418        C577   1.431       .  S
C418        O445   1.271       .  A
Mg419       O426   2.131       .  S
Mg419       O427   2.131       .  S
Mg419       O420   2.302       .  S
Mg419       O421   2.298       .  S
Mg419       O448   2.234       .  S
O421        C425   1.275       .  A
O422       Mg429   2.380       .  S
O423        C442   1.267       .  A
O424        C444   1.283       .  A
O424       Mg440   2.381       .  S
O426       Mg440   2.124   1_565  S
O426        C437   1.237       .  S
O427       Mg446   2.142       .  S
O428       Mg440   2.321       .  S
Mg429       O445   2.250   1_565  S
O430       Mg446   2.275       .  S
H431        C436   1.081       .  S
O432       Mg440   2.106       .  S
O432        C435   1.242       .  S
H433        C435   1.081       .  S
H434        C437   1.081       .  S
O439       Mg446   2.297   1_545  S
C442        C558   1.429       .  S
C442        O447   1.272       .  A
O443        C444   1.273       .  A
C444        C573   1.457       .  S
O449       Mg451   2.142   1_565  S
O449       Mg457   2.131       .  S
O449        C484   1.241   1_455  S
C450        H489   1.081       .  S
C450        O463   1.237       .  S
C450        O487   1.270       .  A
Mg451       O480   2.129       .  S
Mg451       O495   2.306       .  S
Mg451       O491   2.275       .  S
Mg451       O462   2.297   1_455  S
O452       Mg494   2.129       .  S
O452       Mg477   2.106       .  S
O452        C473   1.242       .  S
O453        C484   1.276       .  A
O453       Mg477   2.321       .  S
C454        C581   1.431       .  S
C454        O456   1.271       .  A
C454        O468   1.271       .  A
O455        C483   1.275       .  A
O455       Mg457   2.298   1_545  S
O456       Mg488   2.250   1_655  S
Mg457       O463   2.131       .  S
Mg457       O471   2.234       .  S
Mg457       O459   2.302       .  S
C458        C576   1.429       .  S
C458        O496   1.267   1_565  A
C458        O464   1.272       .  A
O459        C466   1.271       .  A
H460        C473   1.081       .  S
C461        H486   1.081       .  S
C461        O475   1.241   1_455  S
C461        O476   1.276       .  A
O462        C485   1.270       .  A
O463       Mg477   2.124   1_455  S
O464       Mg494   2.306       .  S
C465        C590   1.457       .  S
C465        O478   1.273       .  A
C465        O470   1.283       .  A
C466        C587   1.431       .  S
C466        O493   1.271       .  A
Mg467       O474   2.131       .  S
Mg467       O475   2.131       .  S
Mg467       O468   2.302       .  S
Mg467       O469   2.298   1_545  S
Mg467       O496   2.234       .  S
O469        C473   1.275       .  A
O470       Mg477   2.380       .  S
O471        C490   1.267   1_565  A
O472        C492   1.283       .  A
O472       Mg488   2.380       .  S
O474       Mg488   2.124   1_655  S
O474        C485   1.237       .  S
O475       Mg494   2.142   1_545  S
O476       Mg488   2.321       .  S
Mg477       O493   2.250   1_655  S
O478       Mg494   2.275       .  S
H479        C484   1.081       .  S
O480       Mg488   2.106       .  S
O480        C483   1.242       .  S
H481        C483   1.081       .  S
H482        C485   1.081       .  S
O487       Mg494   2.297   1_455  S
C490        C570   1.429       .  S
C490        O495   1.272       .  A
O491        C492   1.273       .  A
C492        C583   1.457       .  S
O497       Mg499   2.142   1_655  S
O497       Mg505   2.131       .  S
O497        C532   1.241       .  S
C498        H537   1.081       .  S
C498        O511   1.237       .  S
C498        O535   1.270       .  A
Mg499       O528   2.129       .  S
Mg499       O543   2.305       .  S
Mg499       O539   2.275       .  S
Mg499       O510   2.297       .  S
O500       Mg542   2.129       .  S
O500       Mg525   2.106       .  S
O500        C521   1.242       .  S
O501        C532   1.276       .  A
O501       Mg525   2.321       .  S
C502        C551   1.431       .  S
C502        O504   1.271       .  A
C502        O516   1.271       .  A
O503        C531   1.275       .  A
O503       Mg505   2.298   1_455  S
O504       Mg536   2.250       .  S
Mg505       O511   2.131       .  S
Mg505       O519   2.234       .  S
Mg505       O507   2.302       .  S
C506        C592   1.429       .  S
C506        O544   1.267   1_655  A
C506        O512   1.272       .  A
O507        C514   1.271       .  A
H508        C521   1.081       .  S
C509        H534   1.081       .  S
C509        O523   1.241       .  S
C509        O524   1.276       .  A
O510        C533   1.270       .  A
O511       Mg525   2.124       .  S
O512       Mg542   2.306       .  S
C513        C547   1.457       .  S
C513        O526   1.273       .  A
C513        O518   1.283       .  A
C514        C546   1.431       .  S
C514        O541   1.271       .  A
Mg515       O522   2.131       .  S
Mg515       O523   2.131       .  S
Mg515       O516   2.302       .  S
Mg515       O517   2.298   1_455  S
Mg515       O544   2.235       .  S
O517        C521   1.275       .  A
O518       Mg525   2.380       .  S
O519        C538   1.267   1_655  A
O520        C540   1.283       .  A
O520       Mg536   2.380       .  S
O522       Mg536   2.124       .  S
O522        C533   1.237       .  S
O523       Mg542   2.142   1_455  S
O524       Mg536   2.321       .  S
Mg525       O541   2.250       .  S
O526       Mg542   2.275       .  S
H527        C532   1.081       .  S
O528       Mg536   2.106       .  S
O528        C531   1.242       .  S
H529        C531   1.081       .  S
H530        C533   1.081       .  S
O535       Mg542   2.297       .  S
C538        C585   1.429       .  S
C538        O543   1.272       .  A
O539        C540   1.273       .  A
C540        C553   1.457       .  S
C545        C546   1.203       .  T
C547        C548   1.219       .  T
C549        C550   1.201       .  T
C551        C552   1.203       .  T
C553        C554   1.219       .  T
C555        C556   1.201       .  T
C557        C558   1.201       .  T
C559        C560   1.203       .  T
C561        C562   1.219       .  T
C563        C564   1.201       .  T
C565        C566   1.203       .  T
C567        C568   1.219       .  T
C569        C570   1.201       .  T
C571        C572   1.203       .  T
C573        C574   1.219       .  T
C575        C576   1.201       .  T
C577        C578   1.203       .  T
C579        C580   1.219       .  T
C581        C582   1.203       .  T
C583        C584   1.219       .  T
C585        C586   1.201       .  T
C587        C588   1.203       .  T
C589        C590   1.219       .  T
C591        C592   1.201       .  T
