geometry optimzed in LAMMPS
_audit_creation_date              2020-12-01 
_audit_creation_method            'lammps2cif' 
_symmetry_space_group_name_H-M    'P1' 
_symmetry_Int_Tables_number       1 
_symmetry_cell_setting            triclinic 
loop_ 
_symmetry_equiv_pos_as_xyz 
  x,y,z 
_cell_length_a                    58.33561573 
_cell_length_b                    58.616049440505556 
_cell_length_c                    128.49015334088475 
_cell_angle_alpha                 89.71728272677915 
_cell_angle_beta                  90.33459637365998 
_cell_angle_gamma                 120.29046070493118 
loop_ 
_atom_site_label 
_atom_site_type_symbol 
_atom_site_fract_x 
_atom_site_fract_y 
_atom_site_fract_z 
_atom_site_charge 
N1          N  0.99022775  0.04596590  0.86643944    -0.26800
N2          N  0.01564530  0.05307419  0.86643501    -0.34700
C3          C  0.03033165  0.07964225  0.86656392     0.01500
C4          C  0.01346598  0.08996633  0.86665578     0.07500
C5          C  0.98813838  0.06780658  0.86660521    -0.05600
H6          H  0.05179322  0.09054853  0.86638060     0.08200
H7          H  0.96939080  0.06740435  0.86643593     0.09400
Cu8        Cu  0.02934267  0.02630751  0.86567212     0.44200
Cu9        Cu  0.95938666  0.00690637  0.86542001     0.42000
Cu10       Cu  0.97815753  0.95733249  0.86309449     0.43900
N11         N  0.03731107  0.99538386  0.86440539    -0.34200
N12         N  0.01850683  0.97037449  0.86332616    -0.28500
C13         C  0.02982605  0.95543437  0.86224405    -0.04600
C14         C  0.05715784  0.97165920  0.86269560     0.07600
C15         C  0.06115559  0.99690010  0.86411761     0.01400
H16         H  0.01886100  0.93423360  0.86118209     0.09100
H17         H  0.08001552  0.01513929  0.86459873     0.08200
N18         N  0.93894769  0.94856356  0.86302163    -0.35700
N19         N  0.93201562  0.96674473  0.86379322    -0.27900
C20         C  0.90535899  0.95484992  0.86343028    -0.03100
C21         C  0.89486584  0.92776765  0.86243175     0.05500
C22         C  0.91691459  0.92463015  0.86220726     0.03600
H23         H  0.89447366  0.96523116  0.86401350     0.08700
H24         H  0.91705705  0.90633816  0.86143766     0.07500
N25         N  0.23418768  0.91455060  0.85623400    -0.03000
C26         C  0.25858722  0.92593814  0.86087147    -0.00400
C27         C  0.27552944  0.92076860  0.85523897    -0.23300
C28         C  0.26136435  0.90563760  0.84691162    -0.23500
C29         C  0.23607124  0.90195255  0.84766323    -0.00500
H30         H  0.29564024  0.92611782  0.85733227     0.13200
H31         H  0.26839941  0.89702282  0.84123351     0.13300
N32         N  0.05664789  0.31775169  0.85347519    -0.03000
C33         C  0.04588748  0.33173168  0.85737363    -0.00400
C34         C  0.05440151  0.35475962  0.85174960    -0.23300
C35         C  0.07072054  0.35488291  0.84406346    -0.23500
C36         C  0.07167370  0.33189519  0.84522458    -0.00500
H37         H  0.04983110  0.37018206  0.85326478     0.13200
H38         H  0.08131014  0.37044377  0.83841262     0.13300
N39         N  0.66216553  0.74363073  0.85361095    -0.03000
C40         C  0.64665647  0.71963698  0.85819450    -0.00400
C41         C  0.62192476  0.70681042  0.85345266    -0.23300
C42         C  0.62181757  0.72352777  0.84601555    -0.23500
C43         C  0.64655233  0.74610152  0.84629620    -0.00500
H44         H  0.60516654  0.68782421  0.85557325     0.13200
H45         H  0.60514744  0.71988336  0.84112010     0.13300
N46         N  0.29135428  0.67073721  0.76228737    -0.26800
N47         N  0.27412392  0.64512758  0.76170866    -0.34700
C48         C  0.24941144  0.64119605  0.76238260     0.01500
C49         C  0.25092702  0.66547975  0.76349753     0.07500
C50         C  0.27797115  0.68374059  0.76339925    -0.05600
H51         H  0.23174534  0.62187061  0.76232095     0.08200
H52         H  0.28740637  0.70494978  0.76419260     0.09400
Cu53       Cu  0.28441631  0.61606068  0.76077467     0.44200
Cu54       Cu  0.33237305  0.68690541  0.76181909     0.42000
Cu55       Cu  0.35476206  0.63989921  0.75934807     0.43900
N56         N  0.30021517  0.59127832  0.76063092    -0.34200
N57         N  0.32594651  0.60015999  0.75996820    -0.28500
C58         C  0.33009585  0.57962561  0.76043370    -0.04600
C59         C  0.30580701  0.55651748  0.76150180     0.07600
C60         C  0.28727695  0.56477053  0.76157768     0.01400
H61         H  0.34953766  0.58161450  0.76019626     0.09100
H62         H  0.26605360  0.55259839  0.76257462     0.08200
N63         N  0.38038170  0.68046462  0.76011624    -0.35700
N64         N  0.37225782  0.69769812  0.76105790    -0.27900
C65         C  0.39361494  0.72218241  0.76158749    -0.03100
C66         C  0.41645320  0.72040676  0.76096729     0.05500
C67         C  0.40708778  0.69349127  0.76004614     0.03600
H68         H  0.39244455  0.73988447  0.76250516     0.08700
H69         H  0.41868654  0.68387333  0.75942455     0.07500
N70         N  0.07333519  0.71761329  0.77966182    -0.03000
C71         C  0.04768062  0.70438320  0.77637168    -0.00400
C72         C  0.03215669  0.70985350  0.78281553    -0.23300
C73         C  0.04866274  0.72675841  0.79035566    -0.23500
C74         C  0.07381315  0.73110884  0.78831887    -0.00500
H75         H  0.01106689  0.70247122  0.78206670     0.13200
H76         H  0.04292919  0.73508555  0.79662733     0.13300
N77         N  0.24665493  0.32656930  0.78034367    -0.03000
C78         C  0.25285463  0.30912003  0.77614171    -0.00400
C79         C  0.24391344  0.28731821  0.78262214    -0.23300
C80         C  0.23156617  0.29128085  0.79090242    -0.23500
C81         C  0.23323062  0.31539347  0.78929101    -0.00500
H82         H  0.24563253  0.26999754  0.78136869     0.13200
H83         H  0.22126484  0.27738201  0.79713208     0.13300
N84         N  0.64332274  0.91169237  0.77492140    -0.03000
C85         C  0.65651112  0.93630124  0.77062421    -0.00400
C86         C  0.67955956  0.95219808  0.77614452    -0.23300
C87         C  0.68098058  0.93691282  0.78394669    -0.23500
C88         C  0.65861688  0.91215738  0.78307304    -0.00500
H89         H  0.69456414  0.97233491  0.77432677     0.13200
H90         H  0.69686036  0.94311138  0.78959010     0.13300
N91         N  0.01719749  0.95937824  0.09690642    -0.26800
N92         N  0.99163457  0.95122119  0.09604231    -0.34700
C93         C  0.97783675  0.92459676  0.09624447     0.01500
C94         C  0.99553064  0.91538537  0.09733119     0.07500
C95         C  0.02035646  0.93821153  0.09769162    -0.05600
H96         H  0.95642007  0.91290502  0.09592311     0.08200
H97         H  0.03941110  0.93951297  0.09860871     0.09400
Cu98       Cu  0.97699383  0.97713420  0.09516867     0.44200
Cu99       Cu  0.04643062  0.99908829  0.09753100     0.42000
Cu100      Cu  0.02581187  0.04781534  0.09487242     0.43900
N101        N  0.96725587  0.00680441  0.09441802    -0.34200
N102        N  0.98486902  0.03236755  0.09422844    -0.28500
C103        C  0.97193784  0.04599073  0.09406519    -0.04600
C104        C  0.94477100  0.02822048  0.09415932     0.07600
C105        C  0.94271379  0.00353894  0.09437694     0.01400
H106        H  0.98175589  0.06731142  0.09404548     0.09100
H107        H  0.92474752  0.98445454  0.09471708     0.08200
N108        N  0.06521727  0.05758162  0.09695504    -0.35700
N109        N  0.07244672  0.03966645  0.09816213    -0.27900
C110        C  0.09872098  0.05198996  0.09999556    -0.03100
C111        C  0.10872110  0.07903355  0.09988871     0.05500
C112        C  0.08685609  0.08183667  0.09789502     0.03600
H113        H  0.10972030  0.04190819  0.10132965     0.08700
H114        H  0.08652242  0.10010638  0.09749984     0.07500
N115        N  0.77241542  0.08852785  0.10856116    -0.03000
C116        C  0.74711173  0.07739335  0.10486029    -0.00400
C117        C  0.73323590  0.08694410  0.11021554    -0.23300
C118        C  0.75036422  0.10443577  0.11745862    -0.23500
C119        C  0.77418452  0.10494116  0.11638164    -0.00500
H120        H  0.71302357  0.08229088  0.10877764     0.13200
H121        H  0.74586738  0.11550233  0.12298530     0.13300
N122        N  0.33859218  0.26118418  0.11500456    -0.03000
C123        C  0.35297273  0.28525599  0.11032551    -0.00400
C124        C  0.37509841  0.30148151  0.11628725    -0.23300
C125        C  0.37445656  0.28716758  0.12485717    -0.23500
C126        C  0.35208798  0.26247368  0.12388567    -0.00500
H127        H  0.39023172  0.32163350  0.11456027     0.13200
H128        H  0.38928908  0.29377998  0.13096854     0.13300
N129        N  0.92713813  0.67915721  0.10959718    -0.03000
C130        C  0.93210678  0.66216858  0.10417265    -0.00400
C131        C  0.92419987  0.63937817  0.10992951    -0.23300
C132        C  0.91386665  0.64212347  0.11905136    -0.23500
C133        C  0.91563338  0.66650313  0.11867712    -0.00500
H134        H  0.92554123  0.62231055  0.10768603     0.13200
H135        H  0.90491262  0.62735981  0.12511548     0.13300
N136        N  0.70981977  0.30297627  0.20632058    -0.26800
N137        N  0.72774245  0.32843669  0.20595652    -0.34700
C138        C  0.75185304  0.33120018  0.20453096     0.01500
C139        C  0.74919904  0.30630298  0.20393758     0.07500
C140        C  0.72211410  0.28892860  0.20511999    -0.05600
H141        H  0.76989933  0.35010273  0.20377210     0.08200
H142        H  0.71188780  0.26757385  0.20502074     0.09400
Cu143      Cu  0.71876221  0.35860761  0.20681802     0.44200
Cu144      Cu  0.66921206  0.28836680  0.20795352     0.42000
Cu145      Cu  0.64909223  0.33744213  0.20954294     0.43900
N146        N  0.70436177  0.38473275  0.20701958    -0.34200
N147        N  0.67889515  0.37682753  0.20802607    -0.28500
C148        C  0.67574349  0.39800085  0.20756003    -0.04600
C149        C  0.70042250  0.42058932  0.20618700     0.07600
C150        C  0.71808702  0.41122954  0.20589414     0.01400
H151        H  0.65668005  0.39676900  0.20808939     0.09100
H152        H  0.73934142  0.42269472  0.20478289     0.08200
N153        N  0.62246955  0.29686848  0.20974306    -0.35700
N154        N  0.62974441  0.27893075  0.20902721    -0.27900
C155        C  0.60785296  0.25474100  0.20871082    -0.03100
C156        C  0.58556549  0.25746664  0.20928165     0.05500
C157        C  0.59578711  0.28457352  0.20994856     0.03600
H158        H  0.60826254  0.23659696  0.20796597     0.08700
H159        H  0.58473297  0.29480965  0.21019597     0.07500
N160        N  0.35479728  0.08559377  0.18773318    -0.03000
C161        C  0.33733005  0.06305125  0.19281982    -0.00400
C162        C  0.31449566  0.04886586  0.18691433    -0.23300
C163        C  0.31789055  0.06300039  0.17795462    -0.23500
C164        C  0.34256835  0.08552673  0.17868039    -0.00500
H165        H  0.29707980  0.03026144  0.18894878     0.13200
H166        H  0.30339026  0.05799788  0.17179094     0.13300
N167        N  0.93899251  0.26947692  0.18931964    -0.03000
C168        C  0.96408238  0.28123173  0.19333715    -0.00400
C169        C  0.97828399  0.27095402  0.18872426    -0.23300
C170        C  0.96156846  0.25216794  0.18177707    -0.23500
C171        C  0.93761493  0.25156713  0.18222474    -0.00500
H172        H  0.99843811  0.27590773  0.19050186     0.13200
H173        H  0.96645485  0.24031059  0.17684803     0.13300
N174        N  0.75339240  0.65234008  0.19399894    -0.03000
C175        C  0.73980006  0.66330541  0.19816251    -0.00400
C176        C  0.74230958  0.68366866  0.19187933    -0.23300
C177        C  0.75759685  0.68513710  0.18354077    -0.23500
C178        C  0.76411537  0.66570799  0.18499655    -0.00500
H179        H  0.73455668  0.69666823  0.19337642     0.13200
H180        H  0.76385586  0.69932098  0.17723878     0.13300
N181        N  0.28593840  0.66947258  0.03469969    -0.26800
N182        N  0.27911303  0.64433579  0.03551339    -0.34700
C183        C  0.25249583  0.62942715  0.03580143     0.01500
C184        C  0.24179851  0.64584927  0.03512670     0.07500
C185        C  0.26377112  0.67116371  0.03445646    -0.05600
H186        H  0.24184771  0.60810119  0.03633679     0.08200
H187        H  0.26381059  0.68955421  0.03365520     0.09400
Cu188      Cu  0.30601675  0.63097862  0.03565445     0.44200
Cu189      Cu  0.32510475  0.70037418  0.03357284     0.42000
Cu190      Cu  0.37522127  0.68133822  0.03247180     0.43900
N191        N  0.33673069  0.62282377  0.03465817    -0.34200
N192        N  0.36189721  0.64117308  0.03340839    -0.28500
C193        C  0.37656605  0.62944779  0.03265002    -0.04600
C194        C  0.35989799  0.60228774  0.03344430     0.07600
C195        C  0.33474519  0.59893510  0.03473291     0.01400
H196        H  0.39783951  0.64007552  0.03154109     0.09100
H197        H  0.31617801  0.58049872  0.03543058     0.08200
N198        N  0.38390173  0.72031808  0.03212556    -0.35700
N199        N  0.36570442  0.72737289  0.03260144    -0.27900
C200        C  0.37789346  0.75394092  0.03259372    -0.03100
C201        C  0.40517172  0.76421635  0.03210468     0.05500
C202        C  0.40809984  0.74214698  0.03177628     0.03600
H203        H  0.36753820  0.76486443  0.03298150     0.08700
H204        H  0.42644123  0.74181044  0.03155727     0.07500
N205        N  0.58776177  0.99617550  0.02459305    -0.03000
C206        C  0.61159347  0.01075611  0.02942570    -0.00400
C207        C  0.62615515  0.03502425  0.02460229    -0.23300
C208        C  0.61089058  0.03547528  0.01651484    -0.23500
C209        C  0.58744174  0.01141038  0.01663939    -0.00500
H210        H  0.64563911  0.05088238  0.02685049     0.13200
H211        H  0.61612006  0.05185470  0.01126129     0.13300
N212        N  0.39870834  0.41398465  0.02250868    -0.03000
C213        C  0.38753425  0.38950390  0.02691609    -0.00400
C214        C  0.39567726  0.37422954  0.02171698    -0.23300
C215        C  0.41266132  0.38976915  0.01401847    -0.23500
C216        C  0.41432786  0.41408592  0.01464014    -0.00500
H217        H  0.39106921  0.35440108  0.02370531     0.13200
H218        H  0.42306036  0.38406085  0.00862818     0.13300
N219        N  0.01122864  0.59511494  0.02021136    -0.03000
C220        C  0.99799745  0.60718708  0.02361951    -0.00400
C221        C  0.97743746  0.60226262  0.01689174    -0.23300
C222        C  0.97803321  0.58678112  0.00904592    -0.23500
C223        C  0.99899380  0.58278318  0.01121373    -0.00500
H224        H  0.96308908  0.60866289  0.01774330     0.13200
H225        H  0.96438653  0.57895981  0.00253681     0.13300
N226        N  0.62549080  0.35247327  0.92593164    -0.26800
N227        N  0.65091675  0.37074137  0.92655665    -0.34700
C228        C  0.65302204  0.39468496  0.92721484     0.01500
C229        C  0.62770153  0.39144355  0.92704619     0.07500
C230        C  0.61085656  0.36431455  0.92619330    -0.05600
H231        H  0.67167294  0.41303468  0.92798533     0.08200
H232        H  0.58941412  0.35373137  0.92586674     0.09400
Cu233      Cu  0.68168414  0.36226009  0.92681317     0.44200
Cu234      Cu  0.61097785  0.31185726  0.92527305     0.42000
Cu235      Cu  0.66086586  0.29275593  0.92709314     0.43900
N236        N  0.70811215  0.34807738  0.92746491    -0.34200
N237        N  0.70029295  0.32263498  0.92752832    -0.28500
C238        C  0.72165564  0.31972655  0.92838485    -0.04600
C239        C  0.74427943  0.34455810  0.92892477     0.07600
C240        C  0.73477929  0.36204275  0.92827578     0.01400
H241        H  0.72056084  0.30077282  0.92873231     0.09100
H242        H  0.74626250  0.38337803  0.92863703     0.08200
N243        N  0.62040714  0.26606282  0.92753172    -0.35700
N244        N  0.60191399  0.27267726  0.92662071    -0.27900
C245        C  0.57788071  0.25075837  0.92771908    -0.03100
C246        C  0.58150350  0.22941743  0.92955504     0.05500
C247        C  0.60875255  0.23998036  0.92934268     0.03600
H248        H  0.55925057  0.25059580  0.92768257     0.08700
H249        H  0.61947116  0.22957758  0.93058359     0.07500
N250        N  0.98128243  0.41038756  0.94026457    -0.03000
C251        C  0.99277781  0.39754122  0.93589621    -0.00400
C252        C  0.01502928  0.40225019  0.94148000    -0.23300
C253        C  0.01742030  0.41848762  0.94957236    -0.23500
C254        C  0.99636548  0.42302986  0.94875312    -0.00500
H255        H  0.02832574  0.39493468  0.93975273     0.13200
H256        H  0.03299984  0.42626265  0.95539667     0.13300
N257        N  0.58453074  0.57638316  0.94220948    -0.03000
C258        C  0.59642212  0.60125943  0.93817858    -0.00400
C259        C  0.58820013  0.61640348  0.94341575    -0.23300
C260        C  0.57037079  0.60033516  0.95079089    -0.23500
C261        C  0.56836176  0.57586990  0.94992355    -0.00500
H262        H  0.59349249  0.63657357  0.94168377     0.13200
H263        H  0.55980171  0.60586335  0.95617290     0.13300
N264        N  0.41235736  0.99570681  0.94448413    -0.03000
C265        C  0.38943436  0.97716390  0.93980349    -0.00400
C266        C  0.37794096  0.95407894  0.94560184    -0.23300
C267        C  0.39404286  0.95834586  0.95404630    -0.23500
C268        C  0.41508443  0.98387356  0.95319639    -0.00500
H269        H  0.35968869  0.93593512  0.94387174     0.13200
H270        H  0.39117380  0.94400763  0.95999521     0.13300
N271        N  0.95133045  0.93427365  0.59429393    -0.26800
N272        N  0.93355618  0.94160935  0.59272691    -0.34700
C273        C  0.90919969  0.91995332  0.59236284     0.01500
C274        C  0.91171209  0.89789227  0.59389822     0.07500
C275        C  0.93874659  0.90779797  0.59509746    -0.05600
H276        H  0.89093819  0.92034347  0.59148502     0.08200
H277        H  0.94860782  0.89662960  0.59652966     0.09400
Cu278      Cu  0.94332190  0.98091246  0.59227706     0.44200
Cu279      Cu  0.99186986  0.96069560  0.59557985     0.42000
Cu280      Cu  0.01324352  0.03012930  0.59710225     0.43900
N281        N  0.95744926  0.02111218  0.59390924    -0.34200
N282        N  0.98254217  0.03895057  0.59580794    -0.28500
C283        C  0.98447626  0.06274846  0.59682172    -0.04600
C284        C  0.95943043  0.05987589  0.59551315     0.07600
C285        C  0.94288173  0.03305152  0.59366858     0.01400
H286        H  0.00287487  0.08077723  0.59846142     0.09100
H287        H  0.92167456  0.02269750  0.59236733     0.08200
N288        N  0.03966496  0.01558226  0.59755920    -0.35700
N289        N  0.03152976  0.99011177  0.59688098    -0.27900
C290        C  0.05270779  0.98677701  0.59725872    -0.03100
C291        C  0.07559834  0.01130253  0.59826066     0.05500
C292        C  0.06641490  0.02911329  0.59841236     0.03600
H293        H  0.05138398  0.96772412  0.59678777     0.08700
H294        H  0.07824939  0.05033747  0.59919312     0.07500
N295        N  0.91565110  0.24580189  0.60543671    -0.03000
C296        C  0.92704982  0.27094919  0.60170459    -0.00400
C297        C  0.91574062  0.28423011  0.60625798    -0.23300
C298        C  0.89660525  0.26677154  0.61294474    -0.23500
C299        C  0.89697775  0.24340924  0.61237325    -0.00500
H300        H  0.92014067  0.30414520  0.60455077     0.13200
H301        H  0.88386039  0.27074436  0.61776560     0.13300
N302        N  0.30783150  0.06222972  0.61075598    -0.03000
C303        C  0.31873879  0.04821157  0.60698601    -0.00400
C304        C  0.33969339  0.05179935  0.61320901    -0.23300
C305        C  0.34206505  0.06881580  0.62099315    -0.23500
C306        C  0.32240238  0.07507323  0.61934215    -0.00500
H307        H  0.35281446  0.04406805  0.61189116     0.13200
H308        H  0.35687003  0.07618045  0.62712513     0.13300
N309        N  0.73886130  0.66934927  0.61494158    -0.03000
C310        C  0.71575541  0.65391569  0.60969690    -0.00400
C311        C  0.70121773  0.62980032  0.61468813    -0.23300
C312        C  0.71563592  0.63026010  0.62321419    -0.23500
C313        C  0.73869849  0.65457048  0.62319628    -0.00500
H314        H  0.68210705  0.61347320  0.61235313     0.13200
H315        H  0.71028111  0.61416695  0.62863658     0.13300
N316        N  0.70905564  0.36877047  0.70653486    -0.26800
N317        N  0.69023699  0.37494313  0.70734211    -0.34700
C318        C  0.70168584  0.40141593  0.70780402     0.01500
C319        C  0.72901187  0.41247353  0.70715949     0.07500
C320        C  0.73287603  0.39108326  0.70639571    -0.05600
H321        H  0.69080225  0.41182727  0.70809724     0.08200
H322        H  0.75157876  0.39159274  0.70559884     0.09400
Cu323      Cu  0.64967203  0.34745700  0.70657007     0.44200
Cu324      Cu  0.70195327  0.33057505  0.70488572     0.42000
Cu325      Cu  0.63257752  0.27977835  0.70215401     0.43900
N326        N  0.61089085  0.31689025  0.70387796    -0.34200
N327        N  0.60467469  0.29223067  0.70204176    -0.28500
C328        C  0.57839829  0.27764936  0.70011372    -0.04600
C329        C  0.56742015  0.29380587  0.70082971     0.07600
C330        C  0.58871393  0.31855561  0.70325225     0.01400
H331        H  0.56802332  0.25674096  0.69836859     0.09100
H332        H  0.58826208  0.33664697  0.70424032     0.08200
N333        N  0.66403941  0.27224038  0.70222927    -0.35700
N334        N  0.68927672  0.29080914  0.70309592    -0.27900
C335        C  0.70447189  0.27956780  0.70276858    -0.03100
C336        C  0.68809353  0.25243648  0.70171381     0.05500
C337        C  0.66256208  0.24865824  0.70137632     0.03600
H338        H  0.72588763  0.29048252  0.70336927     0.08700
H339        H  0.64411143  0.23014709  0.70052045     0.07500
N340        N  0.33550522  0.24520257  0.69122157    -0.03000
C341        C  0.32180254  0.25525296  0.69605012    -0.00400
C342        C  0.29928487  0.24954337  0.69045218    -0.23300
C343        C  0.29879883  0.23539191  0.68191486    -0.23500
C344        C  0.32109175  0.23280921  0.68253655    -0.00500
H345        H  0.28414411  0.25411785  0.69262289     0.13200
H346        H  0.28312323  0.22685084  0.67614190     0.13300
N347        N  0.73223935  0.07130195  0.68332445    -0.03000
C348        C  0.72484642  0.04754214  0.68785263    -0.00400
C349        C  0.73528558  0.03469700  0.68228509    -0.23300
C350        C  0.74989615  0.05116501  0.67430505    -0.23500
C351        C  0.74785720  0.07353382  0.67513664    -0.00500
H352        H  0.73328160  0.01569385  0.68403309     0.13200
H353        H  0.76149698  0.04759513  0.66869718     0.13300
N354        N  0.90403147  0.64646951  0.69363514    -0.03000
C355        C  0.92844366  0.66094044  0.69807477    -0.00400
C356        C  0.94171736  0.68600461  0.69379983    -0.23300
C357        C  0.92526117  0.68700617  0.68639803    -0.23500
C358        C  0.90239097  0.66246739  0.68632427    -0.00500
H359        H  0.96152668  0.70175151  0.69573952     0.13200
H360        H  0.92964362  0.70382519  0.68151361     0.13300
N361        N  0.04077826  0.97045287  0.37605586    -0.26800
N362        N  0.01498783  0.95357654  0.37546121    -0.34700
C363        C  0.01088737  0.92899818  0.37427481     0.01500
C364        C  0.03528198  0.93021050  0.37411066     0.07500
C365        C  0.05377311  0.95694488  0.37528489    -0.05600
H366        H  0.99145354  0.91160465  0.37344509     0.08200
H367        H  0.07515272  0.96609922  0.37522219     0.09400
Cu368      Cu  0.98645774  0.96483653  0.37575485     0.44200
Cu369      Cu  0.05673564  0.01136317  0.37703521     0.42000
Cu370      Cu  0.00925508  0.03491839  0.37661431     0.43900
N371        N  0.96111715  0.98006598  0.37607686    -0.34200
N372        N  0.96919848  0.00556243  0.37639037    -0.28500
C373        C  0.94775672  0.00856322  0.37624526    -0.04600
C374        C  0.92501919  0.98373714  0.37581889     0.07600
C375        C  0.93444631  0.96621828  0.37574600     0.01400
H376        H  0.94875145  0.02749105  0.37638853     0.09100
H377        H  0.92290215  0.94491985  0.37524967     0.08200
N378        N  0.05044303  0.05976379  0.37613689    -0.35700
N379        N  0.06758575  0.05128159  0.37642170    -0.27900
C380        C  0.09229970  0.07215611  0.37539727    -0.03100
C381        C  0.09084622  0.09503145  0.37429805     0.05500
C382        C  0.06384844  0.08622002  0.37488984     0.03600
H383        H  0.10992024  0.07049702  0.37512246     0.08700
H384        H  0.05440742  0.09794823  0.37409562     0.07500
N385        N  0.08929193  0.75683027  0.35314453    -0.03000
C386        C  0.07950079  0.73239181  0.35748215    -0.00400
C387        C  0.08475192  0.71666863  0.35104432    -0.23300
C388        C  0.09806032  0.73167711  0.34255536    -0.23500
C389        C  0.10073259  0.75621051  0.34403696    -0.00500
H390        H  0.07946880  0.69633630  0.35235275     0.13200
H391        H  0.10577524  0.72562197  0.33616569     0.13300
N392        N  0.26847739  0.32537612  0.35629248    -0.03000
C393        C  0.29430406  0.33807260  0.35945541    -0.00400
C394        C  0.30887137  0.36108641  0.35378164    -0.23300
C395        C  0.29159766  0.36283418  0.34699885    -0.23500
C396        C  0.26704659  0.34073806  0.34863838    -0.00500
H397        H  0.32961545  0.37576553  0.35483616     0.13200
H398        H  0.29636580  0.37864342  0.34149377     0.13300
N399        N  0.69401600  0.93240730  0.36031482    -0.03000
C400        C  0.67858168  0.94045327  0.36513848    -0.00400
C401        C  0.65448749  0.93047951  0.36007613    -0.23300
C402        C  0.65498931  0.91598296  0.35183384    -0.23500
C403        C  0.67945341  0.91752038  0.35206714    -0.00500
H404        H  0.63815393  0.93327994  0.36222568     0.13200
H405        H  0.63895796  0.90507782  0.34636146     0.13300
N406        N  0.40734191  0.68165039  0.26318390    -0.26800
N407        N  0.41493358  0.70697108  0.26226100    -0.34700
C408        C  0.44167549  0.72123058  0.26212534     0.01500
C409        C  0.45151705  0.70411020  0.26305947     0.07500
C410        C  0.42903010  0.67917881  0.26369216    -0.05600
H411        H  0.45305226  0.74256082  0.26164397     0.08200
H412        H  0.42833637  0.66046661  0.26447940     0.09400
Cu413      Cu  0.38840191  0.72093136  0.26181272     0.44200
Cu414      Cu  0.36777079  0.65124462  0.26392481     0.42000
Cu415      Cu  0.31826192  0.67069998  0.26420903     0.43900
N416        N  0.35784094  0.72951821  0.26266499    -0.34200
N417        N  0.33255712  0.71139187  0.26394274    -0.28500
C418        C  0.31822101  0.72353204  0.26465217    -0.04600
C419        C  0.33515052  0.75059719  0.26363028     0.07600
C420        C  0.36012121  0.75356361  0.26236719     0.01400
H421        H  0.29691195  0.71330705  0.26565221     0.09100
H422        H  0.37872249  0.77192501  0.26148324     0.08200
N423        N  0.30884618  0.63123623  0.26393615    -0.35700
N424        N  0.32704787  0.62411430  0.26412569    -0.27900
C425        C  0.31484683  0.59752474  0.26405587    -0.03100
C426        C  0.28760039  0.58730449  0.26368515     0.05500
C427        C  0.28460781  0.60934937  0.26358092     0.03600
H428        H  0.32510355  0.58645708  0.26408016     0.08700
H429        H  0.26612707  0.60948787  0.26341118     0.07500
N430        N  0.28267247  0.92675877  0.28060675    -0.03000
C431        C  0.29463340  0.95051243  0.27560254    -0.00400
C432        C  0.29276952  0.96930496  0.28139596    -0.23300
C433        C  0.27911029  0.95696751  0.29025144    -0.23500
C434        C  0.27301013  0.93098993  0.28956898    -0.00500
H435        H  0.29934940  0.98949322  0.27912241     0.13200
H436        H  0.27309235  0.96566684  0.29628527     0.13300
N437        N  0.68138630  0.75457389  0.27989780    -0.03000
C438        C  0.69810294  0.74876842  0.27469811    -0.00400
C439        C  0.72265046  0.76060327  0.27956690    -0.23300
C440        C  0.72118839  0.77411941  0.28795296    -0.23500
C441        C  0.69581516  0.77033339  0.28799652    -0.00500
H442        H  0.73987014  0.75943455  0.27728923     0.13200
H443        H  0.73720703  0.78606045  0.29328665     0.13300
N444        N  0.10860021  0.35686491  0.27857150    -0.03000
C445        C  0.08558402  0.34375780  0.27295503    -0.00400
C446        C  0.06724174  0.32129568  0.27817670    -0.23300
C447        C  0.07899208  0.32025679  0.28728667    -0.23500
C448        C  0.10427253  0.34207615  0.28736884    -0.00500
H449        H  0.04750867  0.30690606  0.27551864     0.13200
H450        H  0.07028269  0.30480655  0.29311435     0.13300
N451        N  0.63672521  0.36524021  0.43209614    -0.26800
N452        N  0.61961840  0.33957420  0.43148268    -0.34700
C453        C  0.59477977  0.33547885  0.43206305     0.01500
C454        C  0.59602850  0.35967262  0.43309672     0.07500
C455        C  0.62309202  0.37805987  0.43306275    -0.05600
H456        H  0.57716334  0.31611995  0.43190222     0.08200
H457        H  0.63238617  0.39925267  0.43386732     0.09400
Cu458      Cu  0.63019962  0.31052577  0.43036815     0.44200
Cu459      Cu  0.67809881  0.38188480  0.43213771     0.42000
Cu460      Cu  0.69982996  0.33426331  0.43050156     0.43900
N461        N  0.64582005  0.28535899  0.43004632    -0.34200
N462        N  0.67164238  0.29446385  0.43002252    -0.28500
C463        C  0.67601824  0.27407243  0.43042042    -0.04600
C464        C  0.65176455  0.25065742  0.43078770     0.07600
C465        C  0.63303597  0.25874486  0.43046961     0.01400
H466        H  0.69562109  0.27639679  0.43071216     0.09100
H467        H  0.61168004  0.24631885  0.43087370     0.08200
N468        N  0.72569975  0.37446745  0.43202159    -0.35700
N469        N  0.71818535  0.39226001  0.43252220    -0.27900
C470        C  0.74005186  0.41638622  0.43351501    -0.03100
C471        C  0.76237473  0.41356326  0.43372201     0.05500
C472        C  0.75228161  0.38660745  0.43275498     0.03600
H473        H  0.73966302  0.43456494  0.43420358     0.08700
H474        H  0.76337659  0.37639711  0.43251231     0.07500
N475        N  0.99570694  0.59781614  0.44392498    -0.03000
C476        C  0.00989826  0.62188802  0.43927693    -0.00400
C477        C  0.03522011  0.63554757  0.44346674    -0.23300
C478        C  0.03688341  0.61936545  0.45080296    -0.23500
C479        C  0.01247365  0.59643145  0.45095729    -0.00500
H480        H  0.05136554  0.65451012  0.44094226     0.13200
H481        H  0.05422136  0.62361278  0.45538568     0.13300
N482        N  0.42114602  0.41825827  0.44661767    -0.03000
C483        C  0.39601302  0.40439751  0.44274718    -0.00400
C484        C  0.37960941  0.41112121  0.44796976    -0.23300
C485        C  0.39493105  0.42942797  0.45534202    -0.23500
C486        C  0.42029155  0.43337295  0.45444127    -0.00500
H487        H  0.35872365  0.40367760  0.44650033     0.13200
H488        H  0.38827336  0.43891264  0.46077373     0.13300
N489        N  0.59391576  0.01752930  0.44345893    -0.03000
C490        C  0.60499932  0.00342025  0.43994631    -0.00400
C491        C  0.59677475  0.98107241  0.44601598    -0.23300
C492        C  0.58034987  0.98148831  0.45352825    -0.23500
C493        C  0.57905543  0.00413132  0.45186329    -0.00500
H494        H  0.60201381  0.96593121  0.44503275     0.13200
H495        H  0.57033336  0.96677562  0.45953681     0.13300
N496        N  0.35614667  0.66057197  0.53643633    -0.26800
N497        N  0.37465007  0.68585099  0.53618315    -0.34700
C498        C  0.39868213  0.68785267  0.53645012     0.01500
C499        C  0.39531431  0.66262475  0.53683990     0.07500
C500        C  0.36793163  0.64589570  0.53684034    -0.05600
H501        H  0.41720929  0.70642377  0.53611010     0.08200
H502        H  0.35714987  0.62454223  0.53689633     0.09400
Cu503      Cu  0.36661327  0.71667388  0.53481363     0.44200
Cu504      Cu  0.31553688  0.64663128  0.53567106     0.42000
Cu505      Cu  0.29638733  0.69562630  0.53364447     0.43900
N506        N  0.35233110  0.74282651  0.53332363    -0.34200
N507        N  0.32673655  0.73495571  0.53301942    -0.28500
C508        C  0.32383402  0.75621980  0.53208883    -0.04600
C509        C  0.34877301  0.77879022  0.53176098     0.07600
C510        C  0.36636990  0.76940434  0.53256444     0.01400
H511        H  0.30479307  0.75516308  0.53171356     0.09100
H512        H  0.38781237  0.78095416  0.53249014     0.08200
N513        N  0.26907899  0.65524881  0.53382489    -0.35700
N514        N  0.27607697  0.63711347  0.53459179    -0.27900
C515        C  0.25407106  0.61301697  0.53445261    -0.03100
C516        C  0.23195025  0.61600994  0.53355289     0.05500
C517        C  0.24245381  0.64321269  0.53315642     0.03600
H518        H  0.25433046  0.59472812  0.53494053     0.08700
H519        H  0.23168504  0.65368160  0.53245535     0.07500
N520        N  0.41668816  0.01535764  0.52155710    -0.03000
C521        C  0.41111404  0.03237810  0.52656021    -0.00400
C522        C  0.42143191  0.05585789  0.52105978    -0.23300
C523        C  0.43374974  0.05332646  0.51244345    -0.23500
C524        C  0.43088996  0.02847957  0.51297875    -0.00500
H525        H  0.42035961  0.07315499  0.52316806     0.13200
H526        H  0.44466170  0.06844450  0.50666689     0.13300
N527        N  0.57669194  0.61362749  0.52453985    -0.03000
C528        C  0.60098778  0.62452750  0.52915907    -0.00400
C529        C  0.61758162  0.61898777  0.52344481    -0.23300
C530        C  0.60318058  0.60429076  0.51504188    -0.23500
C531        C  0.57819377  0.60133900  0.51583699    -0.00500
H532        H  0.63762495  0.62398002  0.52545546     0.13200
H533        H  0.60992240  0.59576867  0.50920906     0.13300
N534        N  0.99900718  0.43021614  0.52440009    -0.03000
C535        C  0.98541613  0.40485829  0.52794579    -0.00400
C536        C  0.95964392  0.39225421  0.52417597    -0.23300
C537        C  0.95710811  0.41033674  0.51821252    -0.23500
C538        C  0.98145872  0.43337580  0.51841975    -0.00500
H539        H  0.94400238  0.37232558  0.52592984     0.13200
H540        H  0.93944779  0.40697836  0.51407299     0.13300
C541        C  0.35501504  0.80668137  0.53059920    -0.02800
C542        C  0.33529064  0.81226078  0.52734688    -0.05400
C543        C  0.34110477  0.83834416  0.52602766    -0.20400
C544        C  0.36666605  0.85964482  0.52804704     0.25300
C545        C  0.38647980  0.85419801  0.53134324    -0.18000
C546        C  0.38070177  0.82801312  0.53259540    -0.08000
C547        C  0.37201221  0.88699716  0.52603577    -0.18300
C548        C  0.39154985  0.90888812  0.53066498    -0.23100
C549        C  0.39654365  0.93605200  0.52839367     0.27300
C550        C  0.40929546  0.95604592  0.53590494    -0.19800
C551        C  0.41491974  0.98192242  0.53388356    -0.09500
C552        C  0.40834631  0.98836396  0.52422362    -0.10000
C553        C  0.39568806  0.96849669  0.51670832    -0.02900
C554        C  0.38986151  0.94266520  0.51873850    -0.18000
H555        H  0.31535148  0.79649349  0.52561910     0.11000
H556        H  0.32551336  0.84190530  0.52338500     0.11100
H557        H  0.40659656  0.87004769  0.53272955     0.10800
H558        H  0.39640531  0.82453713  0.53512215     0.11900
H559        H  0.35836800  0.88890187  0.52081835     0.12000
H560        H  0.40366874  0.90686674  0.53662968     0.13900
H561        H  0.41502147  0.95163951  0.54334418     0.10400
H562        H  0.42518888  0.99709976  0.53969359     0.12500
H563        H  0.39083238  0.97322699  0.50915126     0.09100
H564        H  0.38087679  0.92818513  0.51259847     0.11800
C565        C  0.55743726  0.62164132  0.52626240    -0.02800
C566        C  0.55811987  0.64182267  0.52013843    -0.05400
C567        C  0.53963309  0.64997505  0.52168065    -0.20400
C568        C  0.51983658  0.63783072  0.52928462     0.25300
C569        C  0.51916757  0.61750974  0.53542402    -0.18000
C570        C  0.53777913  0.60943528  0.53388094    -0.08000
C571        C  0.50069487  0.64732226  0.53068520    -0.18300
C572        C  0.47575688  0.63183255  0.53422533    -0.23100
C573        C  0.45586297  0.64060415  0.53514678     0.27300
C574        C  0.42887192  0.62128660  0.53569602    -0.19800
C575        C  0.40934290  0.62838330  0.53637827    -0.09500
C576        C  0.41626978  0.65511253  0.53659715    -0.10000
C577        C  0.44340599  0.67450534  0.53637683    -0.02900
C578        C  0.46296988  0.66738288  0.53566817    -0.18000
H579        H  0.57310739  0.65129574  0.51417468     0.11000
H580        H  0.54063969  0.66565154  0.51686110     0.11100
H581        H  0.50453853  0.60801899  0.54149261     0.10800
H582        H  0.53654223  0.59339926  0.53850207     0.11900
H583        H  0.50693858  0.66719148  0.52803352     0.12000
H584        H  0.46896581  0.61125099  0.53595523     0.13900
H585        H  0.42277973  0.60051248  0.53544768     0.10400
H586        H  0.38881847  0.61276812  0.53662947     0.12500
H587        H  0.44969877  0.69527795  0.53670309     0.09100
H588        H  0.48353893  0.68294194  0.53564149     0.11800
C589        C  0.20338508  0.59487093  0.53311923    -0.02800
C590        C  0.18334515  0.60125946  0.53171090    -0.05400
C591        C  0.15661128  0.58142643  0.53116625    -0.20400
C592        C  0.14898093  0.55458988  0.53199038     0.25300
C593        C  0.16899628  0.54816022  0.53357632    -0.18000
C594        C  0.19578846  0.56804040  0.53411890    -0.08000
C595        C  0.12005014  0.53445259  0.53103567    -0.18300
C596        C  0.10960811  0.50794472  0.53109977    -0.23100
C597        C  0.08067918  0.48830805  0.52963684     0.27300
C598        C  0.07302381  0.46191344  0.52742746    -0.19800
C599        C  0.04630047  0.44286538  0.52580349    -0.09500
C600        C  0.02648613  0.44968704  0.52641653    -0.10000
C601        C  0.03391042  0.47584720  0.52886798    -0.02900
C602        C  0.06062894  0.49494587  0.53045819    -0.18000
H603        H  0.18814034  0.62156911  0.53095643     0.11000
H604        H  0.14178807  0.58715316  0.53001457     0.11100
H605        H  0.16437074  0.52794174  0.53440498     0.10800
H606        H  0.21047752  0.56222195  0.53532385     0.11900
H607        H  0.10690976  0.54227399  0.52985403     0.12000
H608        H  0.12266948  0.49990519  0.53185806     0.13900
H609        H  0.08784447  0.45603699  0.52681076     0.10400
H610        H  0.04111223  0.42286345  0.52389162     0.12500
H611        H  0.01895272  0.48147024  0.52961643     0.09100
H612        H  0.06518257  0.51467281  0.53246564     0.11800
C613        C  0.44494974  0.01980956  0.50586263    -0.02800
C614        C  0.45988574  0.00895104  0.50979509    -0.05400
C615        C  0.47614550  0.00439735  0.50319112    -0.20400
C616        C  0.47817504  0.01106573  0.49259227     0.25300
C617        C  0.46227384  0.02080115  0.48856885    -0.18000
C618        C  0.44597895  0.02528494  0.49516791    -0.08000
C619        C  0.49725020  0.00783658  0.48604615    -0.18300
C620        C  0.50889262  0.02256486  0.47750640    -0.23100
C621        C  0.52829404  0.01940533  0.47116016     0.27300
C622        C  0.52978676  0.02450255  0.46042326    -0.19800
C623        C  0.54700084  0.02055213  0.45414042    -0.09500
C624        C  0.56332161  0.01179717  0.45851029    -0.10000
C625        C  0.56253662  0.00766721  0.46932042    -0.02900
C626        C  0.54532561  0.01155154  0.47559350    -0.18000
H627        H  0.45995071  0.00508786  0.51803285     0.11000
H628        H  0.48799162  0.99662794  0.50645550     0.11100
H629        H  0.46247466  0.02516844  0.48037194     0.10800
H630        H  0.43451481  0.03352698  0.49195000     0.11900
H631        H  0.50250538  0.99337468  0.48859875     0.12000
H632        H  0.50369381  0.03699997  0.47487225     0.13900
H633        H  0.51694479  0.03068152  0.45684383     0.10400
H634        H  0.54654073  0.02314149  0.44581995     0.12500
H635        H  0.57505460  0.00109064  0.47290459     0.09100
H636        H  0.54542971  0.00838164  0.48389775     0.11800
C637        C  0.55602283  0.58440887  0.50866081    -0.02800
C638        C  0.53053077  0.56681495  0.51246552    -0.05400
C639        C  0.51118156  0.54756791  0.50593472    -0.20400
C640        C  0.51701653  0.54530529  0.49551769     0.25300
C641        C  0.54212047  0.56383927  0.49158846    -0.18000
C642        C  0.56137814  0.58305955  0.49810140    -0.08000
C643        C  0.49648128  0.52339571  0.48905670    -0.18300
C644        C  0.50210032  0.51360340  0.48056974    -0.23100
C645        C  0.48150431  0.49160338  0.47417418     0.27300
C646        C  0.48676666  0.48972435  0.46364914    -0.19800
C647        C  0.46738973  0.47009234  0.45724786    -0.09500
C648        C  0.44251350  0.45164731  0.46131601    -0.10000
C649        C  0.43764512  0.45287921  0.47193839    -0.02900
C650        C  0.45690266  0.47251207  0.47831836    -0.18000
H651        H  0.52595135  0.56688790  0.52060449     0.11000
H652        H  0.49193271  0.53372498  0.50914153     0.11100
H653        H  0.54714146  0.56356115  0.48351763     0.10800
H654        H  0.58080413  0.59652324  0.49493477     0.11900
H655        H  0.47605089  0.51472367  0.49159081     0.12000
H656        H  0.52249305  0.52225071  0.47799047     0.13900
H657        H  0.50559795  0.50410202  0.46026868     0.10400
H658        H  0.47143959  0.47025647  0.44905261     0.12500
H659        H  0.41862581  0.43884333  0.47528600     0.09100
H660        H  0.45236902  0.47261406  0.48645535     0.11800
C661        C  0.98695044  0.45695331  0.51225109    -0.02800
C662        C  0.96916971  0.46644312  0.51266352    -0.05400
C663        C  0.97170991  0.48613493  0.50579554    -0.20400
C664        C  0.99165258  0.49626228  0.49821119     0.25300
C665        C  0.01018885  0.48753194  0.49809948    -0.18000
C666        C  0.00779765  0.46800470  0.50506509    -0.08000
C667        C  0.99225418  0.51555711  0.49049286    -0.18300
C668        C  0.00184326  0.51789249  0.48078929    -0.23100
C669        C  0.00252200  0.53679836  0.47286299     0.27300
C670        C  0.02115690  0.54457982  0.46481493    -0.19800
C671        C  0.02352374  0.56318998  0.45743945    -0.09500
C672        C  0.00684481  0.57394620  0.45780884    -0.10000
C673        C  0.98736517  0.56544603  0.46553496    -0.02900
C674        C  0.98519440  0.54700998  0.47303763    -0.18000
H675        H  0.95291300  0.45812235  0.51815377     0.11000
H676        H  0.95740167  0.49273851  0.50614484     0.11100
H677        H  0.02639453  0.49553649  0.49261003     0.10800
H678        H  0.02159647  0.46079972  0.50456238     0.11900
H679        H  0.98361985  0.52737246  0.49280818     0.12000
H680        H  0.01019966  0.50578807  0.47852397     0.13900
H681        H  0.03453808  0.53684274  0.46441892     0.10400
H682        H  0.03878519  0.56966237  0.45155411     0.12500
H683        H  0.97450933  0.57377441  0.46598030     0.09100
H684        H  0.97003995  0.54092107  0.47892268     0.11800
C685        C  0.79085399  0.43446763  0.43478887    -0.02800
C686        C  0.81000388  0.42780743  0.43774685    -0.05400
C687        C  0.83678128  0.44726855  0.43870430    -0.20400
C688        C  0.84534883  0.47398107  0.43673751     0.25300
C689        C  0.82617691  0.48068136  0.43369524    -0.18000
C690        C  0.79929476  0.46114456  0.43277018    -0.08000
C691        C  0.87428471  0.49372532  0.43811117    -0.18300
C692        C  0.88558537  0.52005003  0.43659208    -0.23100
C693        C  0.91435253  0.53947997  0.43842803     0.27300
C694        C  0.92220701  0.56628492  0.43958394    -0.19800
C695        C  0.94884829  0.58534662  0.44130046    -0.09500
C696        C  0.96834324  0.57807912  0.44192001    -0.10000
C697        C  0.96072809  0.55140393  0.44060632    -0.02900
C698        C  0.93406626  0.53229033  0.43884044    -0.18000
H699        H  0.80436870  0.40756723  0.43944515     0.11000
H700        H  0.85089684  0.44134021  0.44104542     0.11100
H701        H  0.83151598  0.50081208  0.43201279     0.10800
H702        H  0.78517024  0.46696679  0.43035623     0.11900
H703        H  0.88665857  0.48596187  0.44081553     0.12000
H704        H  0.87334852  0.52823855  0.43427549     0.13900
H705        H  0.90760590  0.57251188  0.43924395     0.10400
H706        H  0.95424801  0.60578590  0.44229616     0.12500
H707        H  0.97550599  0.54542122  0.44080058     0.09100
H708        H  0.92923096  0.51210685  0.43763841     0.11800
C709        C  0.64723562  0.22331283  0.43199639    -0.02800
C710        C  0.66878883  0.21920899  0.43359790    -0.05400
C711        C  0.66475517  0.19374438  0.43489413    -0.20400
C712        C  0.63913652  0.17154692  0.43456879     0.25300
C713        C  0.61744148  0.17548768  0.43303568    -0.18000
C714        C  0.62147706  0.20105741  0.43174984    -0.08000
C715        C  0.63597767  0.14495440  0.43642049    -0.18300
C716        C  0.61458858  0.12200559  0.43342784    -0.23100
C717        C  0.61115172  0.09544945  0.43571700     0.27300
C718        C  0.59265203  0.07360789  0.42985697    -0.19800
C719        C  0.58751383  0.04809905  0.43219718    -0.09500
C720        C  0.60079685  0.04389794  0.44043791    -0.10000
C721        C  0.61925778  0.06554051  0.44632817    -0.02900
C722        C  0.62446376  0.09108761  0.44400373    -0.18000
H723        H  0.68892786  0.23563194  0.43395893     0.11000
H724        H  0.68183148  0.19138921  0.43617296     0.11100
H725        H  0.59729668  0.15900421  0.43304516     0.10800
H726        H  0.60432393  0.20329416  0.43061111     0.11900
H727        H  0.65253077  0.14452900  0.44011705     0.12000
H728        H  0.59909619  0.12252687  0.42889695     0.13900
H729        H  0.58178130  0.07624177  0.42354741     0.10400
H730        H  0.57248505  0.03148290  0.42781974     0.12500
H731        H  0.62915875  0.06247599  0.45288192     0.09100
H732        H  0.63816390  0.10708552  0.44896336     0.11800
C733        C  0.44259548  0.41356736  0.44446174    -0.02800
C734        C  0.46135064  0.42820691  0.43679664    -0.05400
C735        C  0.48227949  0.42367542  0.43476148    -0.20400
C736        C  0.48472312  0.40421396  0.44027526     0.25300
C737        C  0.46600821  0.38981409  0.44809318    -0.18000
C738        C  0.44514655  0.39448378  0.45014450    -0.08000
C739        C  0.50758720  0.40033260  0.43793839    -0.18300
C740        C  0.50757349  0.37762993  0.43982532    -0.23100
C741        C  0.53052837  0.37380316  0.43758163     0.27300
C742        C  0.52592804  0.34803593  0.43632551    -0.19800
C743        C  0.54702178  0.34347446  0.43471027    -0.09500
C744        C  0.57342990  0.36460023  0.43440621    -0.10000
C745        C  0.57798429  0.39043265  0.43558259    -0.02900
C746        C  0.55687095  0.39499023  0.43717820    -0.18000
H747        H  0.45979919  0.44323200  0.43243557     0.11000
H748        H  0.49654876  0.43531611  0.42880470     0.11100
H749        H  0.46765584  0.37530395  0.45276678     0.10800
H750        H  0.43097754  0.38330821  0.45619567     0.11900
H751        H  0.52454816  0.41648550  0.43408042     0.12000
H752        H  0.48966235  0.36067018  0.44278720     0.13900
H753        H  0.50589722  0.33130665  0.43663130     0.10400
H754        H  0.54247671  0.32328755  0.43381700     0.12500
H755        H  0.59791845  0.40728237  0.43541892     0.09100
H756        H  0.56141071  0.41509605  0.43836824     0.11800
C757        C  0.28636482  0.90442396  0.27865143    -0.02800
C758        C  0.29393771  0.89369925  0.28689450    -0.05400
C759        C  0.29798360  0.87244665  0.28529567    -0.20400
C760        C  0.29527736  0.86166043  0.27535199     0.25300
C761        C  0.28771743  0.87218571  0.26703863    -0.18000
C762        C  0.28309793  0.89320244  0.26869511    -0.08000
C763        C  0.29955600  0.83887113  0.27410935    -0.18300
C764        C  0.30935227  0.83420396  0.26542339    -0.23100
C765        C  0.31530055  0.81234804  0.26482370     0.27300
C766        C  0.33744950  0.81600814  0.25918483    -0.19800
C767        C  0.34402720  0.79607384  0.25885058    -0.09500
C768        C  0.32813976  0.77174792  0.26391585    -0.10000
C769        C  0.30554166  0.76785820  0.26931192    -0.02900
C770        C  0.29927519  0.78796255  0.26981844    -0.18000
H771        H  0.29708247  0.90202503  0.29462317     0.11000
H772        H  0.30370241  0.86467409  0.29184452     0.11100
H773        H  0.28473748  0.86379791  0.25931883     0.10800
H774        H  0.27647881  0.90008137  0.26220763     0.11900
H775        H  0.29643892  0.82663539  0.28093455     0.12000
H776        H  0.31517257  0.84793407  0.25893092     0.13900
H777        H  0.35001448  0.83454492  0.25521546     0.10400
H778        H  0.36141549  0.79962586  0.25454286     0.12500
H779        H  0.29291419  0.74940851  0.27331150     0.09100
H780        H  0.28173980  0.78430048  0.27404998     0.11800
C781        C  0.47977146  0.71084130  0.26364055    -0.02800
C782        C  0.50050051  0.73582370  0.26052899    -0.05400
C783        C  0.52701829  0.74197047  0.26116682    -0.20400
C784        C  0.53349961  0.72344813  0.26502751     0.25300
C785        C  0.51275511  0.69835663  0.26801430    -0.18000
C786        C  0.48629511  0.69219864  0.26735371    -0.08000
C787        C  0.56196227  0.73080644  0.26571229    -0.18300
C788        C  0.57108284  0.72000555  0.27270305    -0.23100
C789        C  0.59970191  0.72874892  0.27412581     0.27300
C790        C  0.60842257  0.72613667  0.28402336    -0.19800
C791        C  0.63510035  0.73432071  0.28582933    -0.09500
C792        C  0.65369935  0.74506303  0.27775663    -0.10000
C793        C  0.64501718  0.74712376  0.26775582    -0.02900
C794        C  0.61823094  0.73908989  0.26594613    -0.18000
H795        H  0.49628575  0.75062234  0.25752585     0.11000
H796        H  0.54256919  0.76138008  0.25873512     0.11100
H797        H  0.51680422  0.68324813  0.27075280     0.10800
H798        H  0.47097233  0.67278681  0.26985142     0.11900
H799        H  0.57603597  0.74695763  0.26083773     0.12000
H800        H  0.55735825  0.70567842  0.27825690     0.13900
H801        H  0.59458957  0.71809381  0.29043672     0.10400
H802        H  0.64132817  0.73235984  0.29357402     0.12500
H803        H  0.65904705  0.75535323  0.26141832     0.09100
H804        H  0.61207920  0.74079436  0.25815850     0.11800
C805        C  0.26631054  0.55902066  0.26359858    -0.02800
C806        C  0.24156630  0.55117588  0.25893713    -0.05400
C807        C  0.22130869  0.52459837  0.25904855    -0.20400
C808        C  0.22510432  0.50536379  0.26402600     0.25300
C809        C  0.25002005  0.51312066  0.26853671    -0.18000
C810        C  0.27041468  0.53962778  0.26827922    -0.08000
C811        C  0.20280513  0.47743554  0.26440830    -0.18300
C812        C  0.19869386  0.46162344  0.27268366    -0.23100
C813        C  0.17508524  0.43470033  0.27376203     0.27300
C814        C  0.16313501  0.42665843  0.28355014    -0.19800
C815        C  0.14109734  0.40146304  0.28498891    -0.09500
C816        C  0.13092323  0.38319153  0.27676258    -0.10000
C817        C  0.14314557  0.39111265  0.26696018    -0.02900
C818        C  0.16487481  0.41671414  0.26543637    -0.18000
H819        H  0.23790368  0.56557111  0.25514210     0.11000
H820        H  0.20242134  0.51913308  0.25542767     0.11100
H821        H  0.25383306  0.49870026  0.27221164     0.10800
H822        H  0.28925120  0.54501254  0.27192924     0.11900
H823        H  0.18817536  0.47048358  0.25817225     0.12000
H824        H  0.21173924  0.46959884  0.27940166     0.13900
H825        H  0.17064299  0.44011235  0.29008843     0.10400
H826        H  0.13190838  0.39623976  0.29258271     0.12500
H827        H  0.13638766  0.37742406  0.26053170     0.09100
H828        H  0.17410625  0.42220526  0.25784946     0.11800
C829        C  0.68698140  0.90327886  0.34450984    -0.02800
C830        C  0.70087542  0.89060803  0.34765878    -0.05400
C831        C  0.70416017  0.87400097  0.34077356    -0.20400
C832        C  0.69321804  0.86933171  0.33069577     0.25300
C833        C  0.68053172  0.88309762  0.32738740    -0.18000
C834        C  0.67741081  0.89977683  0.33422363    -0.08000
C835        C  0.69540947  0.85004078  0.32389128    -0.18300
C836        C  0.67819457  0.83671543  0.31609457    -0.23100
C837        C  0.68058662  0.81756119  0.30927792     0.27300
C838        C  0.67039412  0.81341763  0.29908100    -0.19800
C839        C  0.67408781  0.79704357  0.29220806    -0.09500
C840        C  0.68761606  0.78410627  0.29549012    -0.10000
C841        C  0.69651102  0.78716210  0.30585252    -0.02900
C842        C  0.69295697  0.80356260  0.31268992    -0.18000
H843        H  0.70808269  0.89244521  0.35555374     0.11000
H844        H  0.71437492  0.86393807  0.34347012     0.11100
H845        H  0.67288336  0.88102820  0.31954046     0.10800
H846        H  0.66700227  0.90962507  0.33150289     0.11900
H847        H  0.71151396  0.84636393  0.32557762     0.12000
H848        H  0.66209849  0.84038909  0.31438146     0.13900
H849        H  0.66052403  0.82373892  0.29629632     0.10400
H850        H  0.66746705  0.79552513  0.28421895     0.12500
H851        H  0.70682348  0.77724619  0.30861808     0.09100
H852        H  0.70009388  0.80531708  0.32059328     0.11800
C853        C  0.62285355  0.00952519  0.43086474    -0.02800
C854        C  0.61564522  0.01408562  0.42097356    -0.05400
C855        C  0.62941799  0.01384478  0.41209849    -0.20400
C856        C  0.65043934  0.00866092  0.41289793     0.25300
C857        C  0.65872922  0.00584800  0.42289743    -0.18000
C858        C  0.64493178  0.00605118  0.43174066    -0.08000
C859        C  0.66185119  0.00460371  0.40315080    -0.18300
C860        C  0.67414936  0.99026625  0.40278387    -0.23100
C861        C  0.68035798  0.98093222  0.39295991     0.27300
C862        C  0.68171949  0.99240128  0.38315507    -0.19800
C863        C  0.68379706  0.98043665  0.37406237    -0.09500
C864        C  0.68491110  0.95705276  0.37455959    -0.10000
C865        C  0.68503337  0.94646106  0.38434343    -0.02900
C866        C  0.68319200  0.95849931  0.39343604    -0.18000
H867        H  0.59824918  0.01590251  0.41997298     0.11000
H868        H  0.62261940  0.01621736  0.40452677     0.11100
H869        H  0.67540424  0.00284073  0.42396314     0.10800
H870        H  0.65091959  0.00246994  0.43928559     0.11900
H871        H  0.65711967  0.01102984  0.39593613     0.12000
H872        H  0.67703215  0.98218501  0.40995225     0.13900
H873        H  0.68033715  0.01004525  0.38241017     0.10400
H874        H  0.68303180  0.98862432  0.36657543     0.12500
H875        H  0.68427925  0.92770848  0.38496919     0.09100
H876        H  0.68218196  0.94916053  0.40085108     0.11800
C877        C  0.24334466  0.33569821  0.34257413    -0.02800
C878        C  0.23185768  0.31511381  0.33530334    -0.05400
C879        C  0.21330297  0.31408386  0.32803297    -0.20400
C880        C  0.20572467  0.33339136  0.32801421     0.25300
C881        C  0.21663995  0.35340851  0.33558873    -0.18000
C882        C  0.23531954  0.35456794  0.34274526    -0.08000
C883        C  0.18833459  0.33359088  0.31951151    -0.18300
C884        C  0.17303648  0.34464411  0.32050713    -0.23100
C885        C  0.15661394  0.34581476  0.31186412     0.27300
C886        C  0.13194346  0.34319276  0.31416578    -0.19800
C887        C  0.11549842  0.34312943  0.30619844    -0.09500
C888        C  0.12369452  0.34645894  0.29576292    -0.10000
C889        C  0.14901706  0.35058387  0.29347429    -0.02900
C890        C  0.16533244  0.35014510  0.30145700    -0.18000
H891        H  0.23827834  0.30073624  0.33489505     0.11000
H892        H  0.20538110  0.29859021  0.32223041     0.11100
H893        H  0.21193452  0.36905039  0.33567787     0.10800
H894        H  0.24440775  0.37090241  0.34816434     0.11900
H895        H  0.18785779  0.32399562  0.31223181     0.12000
H896        H  0.17124741  0.35181678  0.32806176     0.13900
H897        H  0.12498054  0.34029616  0.32213450     0.10400
H898        H  0.09607571  0.33995756  0.30815596     0.12500
H899        H  0.15571367  0.35305374  0.28548195     0.09100
H900        H  0.18465391  0.35306345  0.29949671     0.11800
C901        C  0.38643950  0.38554211  0.43391528    -0.02800
C902        C  0.36141312  0.36252617  0.43460835    -0.05400
C903        C  0.34859227  0.34793300  0.42571458    -0.20400
C904        C  0.36033297  0.35597746  0.41587311     0.25300
C905        C  0.38620368  0.37817457  0.41526091    -0.18000
C906        C  0.39909738  0.39275499  0.42421750    -0.08000
C907        C  0.34350512  0.34265153  0.40653716    -0.18300
C908        C  0.35231859  0.34713804  0.39664799    -0.23100
C909        C  0.33451381  0.33824195  0.38732808     0.27300
C910        C  0.34580209  0.33968705  0.37756155    -0.19800
C911        C  0.33150121  0.33679079  0.36842554    -0.09500
C912        C  0.30550330  0.33234606  0.36882365    -0.10000
C913        C  0.29334342  0.32881177  0.37854772    -0.02900
C914        C  0.30772179  0.33185768  0.38773175    -0.18000
H915        H  0.35108600  0.35665117  0.44197778     0.11000
H916        H  0.32873723  0.33103882  0.42647647     0.11100
H917        H  0.39600564  0.38551076  0.40788412     0.10800
H918        H  0.41792662  0.41083152  0.42338034     0.11900
H919        H  0.32253172  0.32934715  0.40793438     0.12000
H920        H  0.37345691  0.35873936  0.39517603     0.13900
H921        H  0.36634125  0.34462527  0.37697302     0.10400
H922        H  0.34138970  0.33983565  0.36100942     0.12500
H923        H  0.27357691  0.32607184  0.37907640     0.09100
H924        H  0.29830844  0.33114181  0.39504051     0.11800
C925        C  0.11683841  0.77890890  0.33707846    -0.02800
C926        C  0.11484060  0.77523211  0.32625760    -0.05400
C927        C  0.13251910  0.79526843  0.31962375    -0.20400
C928        C  0.15283549  0.81920052  0.32367702     0.25300
C929        C  0.15419762  0.82333677  0.33450146    -0.18000
C930        C  0.13636808  0.80327678  0.34114643    -0.08000
C931        C  0.17240112  0.83897363  0.31634331    -0.18300
C932        C  0.19794081  0.85580839  0.31889380    -0.23100
C933        C  0.21781331  0.87409288  0.31124381     0.27300
C934        C  0.23946126  0.89785388  0.31480256    -0.19800
C935        C  0.25790499  0.91600674  0.30776928    -0.09500
C936        C  0.25533242  0.91048271  0.29706947    -0.10000
C937        C  0.23438136  0.88627237  0.29352667    -0.02900
C938        C  0.21583054  0.86817812  0.30054876    -0.18000
H939        H  0.09995759  0.75656056  0.32294531     0.11000
H940        H  0.13093969  0.79169751  0.31131674     0.11100
H941        H  0.16915802  0.84183132  0.33786425     0.10800
H942        H  0.13858607  0.80642925  0.34947184     0.11900
H943        H  0.16576089  0.83848661  0.30839918     0.12000
H944        H  0.20462546  0.85646360  0.32684335     0.13900
H945        H  0.24169058  0.90268558  0.32300568     0.10400
H946        H  0.27402584  0.93455543  0.31067071     0.12500
H947        H  0.23191212  0.88169717  0.28530114     0.09100
H948        H  0.19999792  0.84961365  0.29755431     0.11800
C949        C  0.06541777  0.72267759  0.36758951    -0.02800
C950        C  0.04680219  0.72931964  0.37119418    -0.05400
C951        C  0.03277216  0.71821838  0.38045713    -0.20400
C952        C  0.03628927  0.69947799  0.38600983     0.25300
C953        C  0.05492155  0.69295474  0.38239978    -0.18000
C954        C  0.06938295  0.70452584  0.37337910    -0.08000
C955        C  0.02188831  0.68796934  0.39591917    -0.18300
C956        C  0.01376897  0.66272640  0.39862767    -0.23100
C957        C  0.00601855  0.65155707  0.40933649     0.27300
C958        C  0.99632204  0.62438390  0.41077761    -0.19800
C959        C  0.99484236  0.61393639  0.42073898    -0.09500
C960        C  0.00310392  0.63051966  0.42946046    -0.10000
C961        C  0.01074681  0.65723001  0.42814003    -0.02900
C962        C  0.01209527  0.66768104  0.41819454    -0.18000
H963        H  0.04254988  0.74251515  0.36678003     0.11000
H964        H  0.01870527  0.72374929  0.38314822     0.11100
H965        H  0.05877993  0.67926979  0.38667435     0.10800
H966        H  0.08375551  0.69915569  0.37092139     0.11900
H967        H  0.01899332  0.70080805  0.40111221     0.12000
H968        H  0.01493652  0.64994548  0.39281415     0.13900
H969        H  0.99160803  0.61148795  0.40411687     0.10400
H970        H  0.98948305  0.59342836  0.42150069     0.12500
H971        H  0.01748906  0.67044816  0.43475848     0.09100
H972        H  0.01987070  0.68868738  0.41750588     0.11800
C973        C  0.04043546  0.90804711  0.37232081    -0.02800
C974        C  0.02012472  0.88347166  0.36864993    -0.05400
C975        C  0.02529025  0.86319867  0.36633730    -0.20400
C976        C  0.05075354  0.86672249  0.36774981     0.25300
C977        C  0.07098826  0.89100994  0.37167907    -0.18000
C978        C  0.06586248  0.91141617  0.37393033    -0.08000
C979        C  0.05566299  0.84534489  0.36428054    -0.18300
C980        C  0.07564091  0.84200736  0.36777597    -0.23100
C981        C  0.07985863  0.82052810  0.36383695     0.27300
C982        C  0.09086918  0.80930335  0.37042835    -0.19800
C983        C  0.09415650  0.78846946  0.36695735    -0.09500
C984        C  0.08658471  0.77860236  0.35680984    -0.10000
C985        C  0.07662285  0.79054940  0.35009993    -0.02900
C986        C  0.07340772  0.81133181  0.35353823    -0.18000
H987        H  0.00031117  0.87999581  0.36726230     0.11000
H988        H  0.00935348  0.84475097  0.36328043     0.11100
H989        H  0.09099910  0.89469037  0.37269091     0.10800
H990        H  0.08196879  0.92994335  0.37681141     0.11900
H991        H  0.04151405  0.83116222  0.35877494     0.12000
H992        H  0.08839856  0.85436585  0.37402283     0.13900
H993        H  0.09649420  0.81636924  0.37833306     0.10400
H994        H  0.10244809  0.77992590  0.37217817     0.12500
H995        H  0.07107515  0.78353220  0.34219243     0.09100
H996        H  0.06595491  0.82023026  0.34809088     0.11800
C997        C  0.24718497  0.30024608  0.35990791    -0.02800
C998        C  0.22221272  0.29696915  0.36222138    -0.05400
C999        C  0.20105573  0.27214928  0.36504560    -0.20400
C1000       C  0.20423538  0.24994510  0.36540762     0.25300
C1001       C  0.22960212  0.25348497  0.36347886    -0.18000
C1002       C  0.25083666  0.27840697  0.36078359    -0.08000
C1003       C  0.18077217  0.22359250  0.36790493    -0.18300
C1004       C  0.17841946  0.20055465  0.36478361    -0.23100
C1005       C  0.15547335  0.17404083  0.36741104     0.27300
C1006       C  0.15974471  0.15258975  0.36804805    -0.19800
C1007       C  0.13894331  0.12720685  0.37040117    -0.09500
C1008       C  0.11305399  0.12241318  0.37205385    -0.10000
C1009       C  0.10865716  0.14391992  0.37127213    -0.02900
C1010       C  0.12961944  0.16945188  0.36897839    -0.18000
H1011       H  0.21908298  0.31364884  0.36179974     0.11000
H1012       H  0.18194085  0.27015224  0.36669417     0.11100
H1013       H  0.23321280  0.23715242  0.36407289     0.10800
H1014       H  0.26999674  0.28053852  0.35910865     0.11900
H1015       H  0.16476777  0.22330924  0.37227312     0.12000
H1016       H  0.19434127  0.20084843  0.36036056     0.13900
H1017       H  0.17939483  0.15550503  0.36679249     0.10400
H1018       H  0.14331793  0.11139111  0.37082658     0.12500
H1019       H  0.08906515  0.14114816  0.37239188     0.09100
H1020       H  0.12539772  0.18536516  0.36825590     0.11800
C1021       C  0.89681186  0.97711155  0.37517836    -0.02800
C1022       C  0.87613864  0.95100508  0.37679531    -0.05400
C1023       C  0.84960465  0.94441769  0.37591973    -0.20400
C1024       C  0.84291662  0.96358915  0.37327232     0.25300
C1025       C  0.86352296  0.98986560  0.37182203    -0.18000
C1026       C  0.89015917  0.99653840  0.37279660    -0.08000
C1027       C  0.81426627  0.95533365  0.37237001    -0.18300
C1028       C  0.80498573  0.96821089  0.36657618    -0.23100
C1029       C  0.77613617  0.95880617  0.36527454     0.27300
C1030       C  0.76752307  0.96575392  0.35619652    -0.19800
C1031       C  0.74061386  0.95719425  0.35464128    -0.09500
C1032       C  0.72177043  0.94188921  0.36220370    -0.10000
C1033       C  0.73024624  0.93499773  0.37131321    -0.02900
C1034       C  0.75716950  0.94345191  0.37287318    -0.18000
H1035       H  0.88033188  0.93553318  0.37879293     0.11000
H1036       H  0.83418574  0.92409873  0.37720121     0.11100
H1037       H  0.85919742  0.00538401  0.37006120     0.10800
H1038       H  0.90549336  0.01687455  0.37154344     0.11900
H1039       H  0.80019321  0.93685606  0.37609584     0.12000
H1040       H  0.81881222  0.98530421  0.36204262     0.13900
H1041       H  0.78163179  0.97755310  0.35022144     0.10400
H1042       H  0.73436995  0.96244602  0.34750886     0.12500
H1043       H  0.71599920  0.92248768  0.37708485     0.09100
H1044       H  0.76301807  0.93807173  0.38006014     0.11800
C1045       C  0.74938760  0.44095153  0.70660109    -0.02800
C1046       C  0.74396174  0.46011451  0.71043428    -0.05400
C1047       C  0.76288741  0.48700761  0.70969218    -0.20400
C1048       C  0.78759931  0.49548222  0.70498947     0.25300
C1049       C  0.79317062  0.47621355  0.70127225    -0.18000
C1050       C  0.77428247  0.44929203  0.70207729    -0.08000
C1051       C  0.80702298  0.52445640  0.70436797    -0.18300
C1052       C  0.82816972  0.53540736  0.69793639    -0.23100
C1053       C  0.84748623  0.56437603  0.69715012     0.27300
C1054       C  0.86408479  0.57382860  0.68838526    -0.19800
C1055       C  0.88280533  0.60070700  0.68731185    -0.09500
C1056       C  0.88561822  0.61870092  0.69504350    -0.10000
C1057       C  0.86923817  0.60950090  0.70383355    -0.02900
C1058       C  0.85036235  0.58259392  0.70491126    -0.18000
H1059       H  0.72511923  0.45435707  0.71408226     0.11000
H1060       H  0.75808663  0.50128686  0.71273681     0.11100
H1061       H  0.81214003  0.48163056  0.69785615     0.10800
H1062       H  0.77910940  0.43506766  0.69902017     0.11900
H1063       H  0.80287693  0.53719754  0.70910578     0.12000
H1064       H  0.83110561  0.52283300  0.69261088     0.13900
H1065       H  0.86242795  0.56036886  0.68228993     0.10400
H1066       H  0.89511737  0.60758833  0.68042748     0.12500
H1067       H  0.87074427  0.62325557  0.70975654     0.09100
H1068       H  0.83841519  0.57627414  0.71188031     0.11800
C1069       C  0.72513310  0.09044698  0.68640939    -0.02800
C1070       C  0.70254084  0.08939114  0.68209781    -0.05400
C1071       C  0.69551727  0.10806540  0.68484343    -0.20400
C1072       C  0.71122546  0.12855846  0.69180395     0.25300
C1073       C  0.73393577  0.12952463  0.69618489    -0.18000
C1074       C  0.74082229  0.11056909  0.69348059    -0.08000
C1075       C  0.70277109  0.14803067  0.69429078    -0.18300
C1076       C  0.71923034  0.17279114  0.69775143    -0.23100
C1077       C  0.71075976  0.19273615  0.69925299     0.27300
C1078       C  0.73013048  0.21969540  0.69940742    -0.19800
C1079       C  0.72291541  0.23907123  0.70030191    -0.09500
C1080       C  0.69605064  0.23195492  0.70110930    -0.10000
C1081       C  0.67675786  0.20493437  0.70133728    -0.02900
C1082       C  0.68398140  0.18560179  0.70048552    -0.18000
H1083       H  0.69032368  0.07394793  0.67662227     0.11000
H1084       H  0.67785358  0.10668179  0.68139848     0.11100
H1085       H  0.74620237  0.14460041  0.70177705     0.10800
H1086       H  0.75833470  0.11154193  0.69686209     0.11900
H1087       H  0.68238482  0.14213065  0.69238133     0.12000
H1088       H  0.74014731  0.17943306  0.69881347     0.13900
H1089       H  0.75095599  0.22584056  0.69863190     0.10400
H1090       H  0.73845266  0.25960038  0.70019887     0.12500
H1091       H  0.65595875  0.19854046  0.70221228     0.09100
H1092       H  0.66841002  0.16512176  0.70088586     0.11800
C1093       C  0.36232065  0.25129112  0.69354479    -0.02800
C1094       C  0.36962657  0.24748514  0.70355666    -0.05400
C1095       C  0.39573071  0.25371254  0.70569337    -0.20400
C1096       C  0.41490334  0.26306958  0.69779757     0.25300
C1097       C  0.40765834  0.26694067  0.68776997    -0.18000
C1098       C  0.38170577  0.26125042  0.68569739    -0.08000
C1099       C  0.44246505  0.26944705  0.70029592    -0.18300
C1100       C  0.45799354  0.26621223  0.69342934    -0.23100
C1101       C  0.48573620  0.27291614  0.69578710     0.27300
C1102       C  0.49611846  0.25868795  0.69092043    -0.19800
C1103       C  0.52245985  0.26515548  0.69267941    -0.09500
C1104       C  0.53923963  0.28645948  0.69915660    -0.10000
C1105       C  0.52890503  0.30086277  0.70394713    -0.02900
C1106       C  0.50241934  0.29407125  0.70234999    -0.18000
H1107       H  0.35518639  0.23918056  0.70969113     0.11000
H1108       H  0.40082544  0.25066337  0.71349506     0.11100
H1109       H  0.42213725  0.27484483  0.68157362     0.10800
H1110       H  0.37671837  0.26472087  0.67794842     0.11900
H1111       H  0.44965028  0.27574898  0.70817764     0.12000
H1112       H  0.44975474  0.25731054  0.68591980     0.13900
H1113       H  0.48375375  0.24243404  0.68576513     0.10400
H1114       H  0.52983853  0.25379468  0.68879835     0.12500
H1115       H  0.54126605  0.31732417  0.70900977     0.09100
H1116       H  0.49524864  0.30581602  0.70605285     0.11800
C1117       C  0.76069895  0.66116068  0.63063973    -0.02800
C1118       C  0.78703891  0.67249220  0.62723906    -0.05400
C1119       C  0.80694495  0.67511537  0.63409615    -0.20400
C1120       C  0.80075012  0.66572782  0.64437609     0.25300
C1121       C  0.77455700  0.65525226  0.64787539    -0.18000
C1122       C  0.75477930  0.65302176  0.64107002    -0.08000
C1123       C  0.82211326  0.66717177  0.65116803    -0.18300
C1124       C  0.81773194  0.65020166  0.65908922    -0.23100
C1125       C  0.83938696  0.65125303  0.66564765     0.27300
C1126       C  0.83333995  0.63930874  0.67555004    -0.19800
C1127       C  0.85357356  0.64169153  0.68220922    -0.09500
C1128       C  0.88014828  0.65567951  0.67898529    -0.10000
C1129       C  0.88594394  0.66617122  0.66886097    -0.02900
C1130       C  0.86588386  0.66394127  0.66226124    -0.18000
H1131       H  0.79210813  0.67832913  0.61918672     0.11000
H1132       H  0.82703845  0.68349201  0.63124735     0.11100
H1133       H  0.76921205  0.64871092  0.65583969     0.10800
H1134       H  0.73462989  0.64436327  0.64390277     0.11900
H1135       H  0.84217601  0.68235965  0.64925751     0.12000
H1136       H  0.79756017  0.63508164  0.66095981     0.13900
H1137       H  0.81305052  0.62903317  0.67829998     0.10400
H1138       H  0.84852052  0.63376565  0.69001560     0.12500
H1139       H  0.90622544  0.67666903  0.66609707     0.09100
H1140       H  0.87143570  0.67229327  0.65454124     0.11800
C1141       C  0.60833403  0.63630074  0.53970494    -0.02800
C1142       C  0.59344774  0.62178218  0.54833665    -0.05400
C1143       C  0.60431249  0.62818830  0.55836382    -0.20400
C1144       C  0.63034939  0.64913820  0.55999431     0.25300
C1145       C  0.64456492  0.66488932  0.55142599    -0.18000
C1146       C  0.63363563  0.65845865  0.54138819    -0.08000
C1147       C  0.64315864  0.65075475  0.57024534    -0.18300
C1148       C  0.66683797  0.67088612  0.57343767    -0.23100
C1149       C  0.68083023  0.66766360  0.58254194     0.27300
C1150       C  0.69486595  0.68831568  0.58967455    -0.19800
C1151       C  0.70726015  0.68457535  0.59841534    -0.09500
C1152       C  0.70630400  0.66033120  0.59995924    -0.10000
C1153       C  0.69333627  0.64029810  0.59252147    -0.02900
C1154       C  0.68076031  0.64387083  0.58395423    -0.18000
H1155       H  0.57457210  0.60388626  0.54728611     0.11000
H1156       H  0.59301168  0.61548180  0.56478282     0.11100
H1157       H  0.66482672  0.68088372  0.55226958     0.10800
H1158       H  0.64574309  0.66961017  0.53482897     0.11900
H1159       H  0.63324373  0.63336077  0.57520414     0.12000
H1160       H  0.67644360  0.68953497  0.56926231     0.13900
H1161       H  0.69544656  0.70695399  0.58866796     0.10400
H1162       H  0.71669845  0.70021208  0.60411322     0.12500
H1163       H  0.69251932  0.62152427  0.59343457     0.09100
H1164       H  0.67092967  0.62791019  0.57840529     0.11800
C1165       C  0.39710129  0.02838158  0.53658781    -0.02800
C1166       C  0.40883969  0.04850649  0.54403810    -0.05400
C1167       C  0.39439441  0.04904827  0.55252241    -0.20400
C1168       C  0.36771441  0.02952426  0.55381525     0.25300
C1169       C  0.35605734  0.00852470  0.54662684    -0.18000
C1170       C  0.37073217  0.00795629  0.53805146    -0.08000
C1171       C  0.35294208  0.03334885  0.56238887    -0.18300
C1172       C  0.33124296  0.01401273  0.56711908    -0.23100
C1173       C  0.32125837  0.01974632  0.57681425     0.27300
C1174       C  0.31622474  0.00343409  0.58553126    -0.19800
C1175       C  0.31302220  0.01164943  0.59535838    -0.09500
C1176       C  0.31394250  0.03591545  0.59655737    -0.10000
C1177       C  0.31609240  0.05086497  0.58767189    -0.02900
C1178       C  0.31991053  0.04295095  0.57787495    -0.18000
H1179       H  0.42903350  0.06461883  0.54303100     0.11000
H1180       H  0.40392614  0.06535983  0.55793649     0.11100
H1181       H  0.33537647  0.99333823  0.54731105     0.10800
H1182       H  0.36107308  0.99259237  0.53226454     0.11900
H1183       H  0.36187618  0.05318073  0.56558304     0.12000
H1184       H  0.32336510  0.99358423  0.56483289     0.13900
H1185       H  0.31699949  0.98540848  0.58489210     0.10400
H1186       H  0.31149241  0.99987468  0.60212188     0.12500
H1187       H  0.31712984  0.06976416  0.58841998     0.09100
H1188       H  0.32326751  0.05567911  0.57122543     0.11800
C1189       C  0.32600098  0.21621374  0.67517301    -0.02800
C1190       C  0.33705289  0.20095664  0.67852822    -0.05400
C1191       C  0.33919365  0.18363862  0.67165756    -0.20400
C1192       C  0.32962813  0.18066164  0.66140260     0.25300
C1193       C  0.31884565  0.19609037  0.65801508    -0.18000
C1194       C  0.31711891  0.21366983  0.66480901    -0.08000
C1195       C  0.33178339  0.16193254  0.65429932    -0.18300
C1196       C  0.31373560  0.14849902  0.64678765    -0.23100
C1197       C  0.31606781  0.12995450  0.63964036     0.27300
C1198       C  0.29301408  0.10738129  0.63607254    -0.19800
C1199       C  0.29476400  0.08937049  0.62946738    -0.09500
C1200       C  0.31958077  0.09423554  0.62595431    -0.10000
C1201       C  0.34258939  0.11718374  0.62935290    -0.02900
C1202       C  0.34089336  0.13478937  0.63614952    -0.18000
H1203       H  0.34331272  0.20173688  0.68653175     0.11000
H1204       H  0.34765485  0.17199145  0.67443101     0.11100
H1205       H  0.31197901  0.19481927  0.65007478     0.10800
H1206       H  0.30864114  0.22522362  0.66194227     0.11900
H1207       H  0.34798682  0.15817558  0.65562176     0.12000
H1208       H  0.29602200  0.15008885  0.64617698     0.13900
H1209       H  0.27365921  0.10330698  0.63864052     0.10400
H1210       H  0.27675808  0.07145554  0.62729660     0.12500
H1211       H  0.36200513  0.12151221  0.62675044     0.09100
H1212       H  0.35899599  0.15234762  0.63853950     0.11800
C1213       C  0.76375055  0.09731405  0.66868067    -0.02800
C1214       C  0.75168298  0.10776322  0.66231170    -0.05400
C1215       C  0.76683396  0.12755793  0.65502853    -0.20400
C1216       C  0.79416686  0.13697202  0.65393171     0.25300
C1217       C  0.80634220  0.12728238  0.66069901    -0.18000
C1218       C  0.79122337  0.10754207  0.66792692    -0.08000
C1219       C  0.80936602  0.15692546  0.64572507    -0.18300
C1220       C  0.83178725  0.15988185  0.64139291    -0.23100
C1221       C  0.84761155  0.18013149  0.63334628     0.27300
C1222       C  0.87428111  0.18725331  0.63182921    -0.19800
C1223       C  0.89028412  0.20720061  0.62475457    -0.09500
C1224       C  0.87977489  0.22014490  0.61894669    -0.10000
C1225       C  0.85292874  0.21245408  0.62018876    -0.02900
C1226       C  0.83693195  0.19253798  0.62722929    -0.18000
H1227       H  0.73045280  0.09982014  0.66262060     0.11000
H1228       H  0.75701231  0.13487064  0.64998411     0.11100
H1229       H  0.82747058  0.13472534  0.66042796     0.10800
H1230       H  0.80092155  0.09977663  0.67281318     0.11900
H1231       H  0.80136633  0.16913537  0.64313285     0.12000
H1232       H  0.83943132  0.14733916  0.64398032     0.13900
H1233       H  0.88300588  0.17791243  0.63636600     0.10400
H1234       H  0.91104244  0.21310680  0.62409436     0.12500
H1235       H  0.84434832  0.22209993  0.61575655     0.09100
H1236       H  0.81632709  0.18708797  0.62781574     0.11800
C1237       C  0.99411372  0.39277300  0.53607378    -0.02800
C1238       C  0.00499563  0.40596414  0.54546736    -0.05400
C1239       C  0.00637855  0.39209443  0.55412718    -0.20400
C1240       C  0.99681429  0.36474037  0.55360302     0.25300
C1241       C  0.98810852  0.35213972  0.54388178    -0.18000
C1242       C  0.98672386  0.36603729  0.53524649    -0.08000
C1243       C  0.99335276  0.35005666  0.56357639    -0.18300
C1244       C  0.98242412  0.32355498  0.56442758    -0.23100
C1245       C  0.97238749  0.30886107  0.57445656     0.27300
C1246       C  0.95211376  0.28217133  0.57411122    -0.19800
C1247       C  0.93862571  0.26891841  0.58317006    -0.09500
C1248       C  0.94530876  0.28207145  0.59275152    -0.10000
C1249       C  0.96690482  0.30800442  0.59326466    -0.02900
C1250       C  0.98057982  0.32118306  0.58424368    -0.18000
H1251       H  0.01050589  0.42647567  0.54637259     0.11000
H1252       H  0.01339816  0.40247128  0.56144604     0.11100
H1253       H  0.98093360  0.33132166  0.54292350     0.10800
H1254       H  0.97836947  0.35547883  0.52804136     0.11900
H1255       H  0.99746986  0.36165319  0.57061019     0.12000
H1256       H  0.97763987  0.31160602  0.55747256     0.13900
H1257       H  0.94552330  0.27204421  0.56672617     0.10400
H1258       H  0.92177612  0.24904865  0.58256349     0.12500
H1259       H  0.97244562  0.31846933  0.60060902     0.09100
H1260       H  0.99683838  0.34125770  0.58498566     0.11800
C1261       C  0.95185116  0.08071416  0.59609022    -0.02800
C1262       C  0.92540237  0.07440638  0.59446245    -0.05400
C1263       C  0.91833068  0.09393964  0.59495755    -0.20400
C1264       C  0.93737647  0.12036767  0.59709245     0.25300
C1265       C  0.96380845  0.12667386  0.59886018    -0.18000
C1266       C  0.97091918  0.10714593  0.59831120    -0.08000
C1267       C  0.92845005  0.14021031  0.59777954    -0.18300
C1268       C  0.94492896  0.16669864  0.59788207    -0.23100
C1269       C  0.93632123  0.18668284  0.59915739     0.27300
C1270       C  0.95603133  0.21331624  0.60052671    -0.19800
C1271       C  0.94927496  0.23271543  0.60237413    -0.09500
C1272       C  0.92257238  0.22605366  0.60280287    -0.10000
C1273       C  0.90279285  0.19970411  0.60100229    -0.02900
C1274       C  0.90950319  0.18019921  0.59925477    -0.18000
H1275       H  0.91000207  0.05439556  0.59277918     0.11000
H1276       H  0.89777720  0.08831408  0.59364885     0.11100
H1277       H  0.97914640  0.14649929  0.60084110     0.10800
H1278       H  0.99142049  0.11288537  0.59970889     0.11900
H1279       H  0.90720848  0.13223165  0.59823664     0.12000
H1280       H  0.96612112  0.17452337  0.59719127     0.13900
H1281       H  0.97684474  0.21909825  0.60042273     0.10400
H1282       H  0.96491624  0.25285047  0.60375819     0.12500
H1283       H  0.88207556  0.19417257  0.60106870     0.09100
H1284       H  0.89347251  0.16021818  0.59802775     0.11800
C1285       C  0.10350858  0.01679419  0.59921690    -0.02800
C1286       C  0.10841792  0.99618246  0.60156287    -0.05400
C1287       C  0.13434418  0.00098921  0.60264185    -0.20400
C1288       C  0.15631025  0.02651382  0.60139120     0.25300
C1289       C  0.15157710  0.04727923  0.59898434    -0.18000
C1290       C  0.12547212  0.04243578  0.59790770    -0.08000
C1291       C  0.18336057  0.03018476  0.60309236    -0.18300
C1292       C  0.20660384  0.05186388  0.60047451    -0.23100
C1293       C  0.23304358  0.05426829  0.60249441     0.27300
C1294       C  0.25588570  0.07948643  0.60322495    -0.19800
C1295       C  0.28071982  0.08232635  0.60561770    -0.09500
C1296       C  0.28316169  0.05994646  0.60729566    -0.10000
C1297       C  0.26068616  0.03481860  0.60604974    -0.02900
C1298       C  0.23598042  0.03194990  0.60364071    -0.18000
H1299       H  0.09221524  0.97621693  0.60274622     0.11000
H1300       H  0.13722658  0.98457290  0.60453266     0.11100
H1301       H  0.16780003  0.06733973  0.59810002     0.10800
H1302       H  0.12253394  0.05881329  0.59605384     0.11900
H1303       H  0.18386245  0.01380597  0.60682691     0.12000
H1304       H  0.20656663  0.06874137  0.59700169     0.13900
H1305       H  0.25440396  0.09705116  0.60217598     0.10400
H1306       H  0.29790548  0.10191355  0.60637534     0.12500
H1307       H  0.26217830  0.01729646  0.60720274     0.09100
H1308       H  0.21935265  0.01216183  0.60266088     0.11800
C1309       C  0.89015403  0.86998063  0.59478803    -0.02800
C1310       C  0.86569403  0.86098840  0.58969065    -0.05400
C1311       C  0.84543468  0.83455087  0.59059089    -0.20400
C1312       C  0.84898758  0.81686267  0.59684900     0.25300
C1313       C  0.87350262  0.82585880  0.60189867    -0.18000
C1314       C  0.89388403  0.85207515  0.60083017    -0.08000
C1315       C  0.82704066  0.78909329  0.59795626    -0.18300
C1316       C  0.82269938  0.77565101  0.60694661    -0.23100
C1317       C  0.80034230  0.74833456  0.60856740     0.27300
C1318       C  0.78980328  0.74079063  0.61860288    -0.19800
C1319       C  0.76920478  0.71512296  0.62057903    -0.09500
C1320       C  0.75907478  0.69620191  0.61261477    -0.10000
C1321       C  0.76966869  0.70361475  0.60255133    -0.02900
C1322       C  0.79010783  0.72950754  0.60052457    -0.18000
H1323       H  0.86234509  0.87430144  0.58490320     0.11000
H1324       H  0.82680304  0.82800618  0.58654947     0.11100
H1325       H  0.87710176  0.81256431  0.60657708     0.10800
H1326       H  0.91245366  0.85840580  0.60487942     0.11900
H1327       H  0.81321440  0.78023919  0.59151301     0.12000
H1328       H  0.83500671  0.78570193  0.61367413     0.13900
H1329       H  0.79745691  0.75487088  0.62493709     0.10400
H1330       H  0.76127748  0.70988667  0.62837660     0.12500
H1331       H  0.76249362  0.68922559  0.59633601     0.09100
H1332       H  0.79832429  0.73453441  0.59276141     0.11800
C1333       C  0.95474988  0.40513772  0.93822610    -0.02800
C1334       C  0.94925000  0.41670332  0.92971871    -0.05400
C1335       C  0.92325942  0.41114321  0.92778313    -0.20400
C1336       C  0.90230482  0.39406383  0.93435388     0.25300
C1337       C  0.90812984  0.38312861  0.94306367    -0.18000
C1338       C  0.93407573  0.38860736  0.94494278    -0.08000
C1339       C  0.87500167  0.38912655  0.93215633    -0.18300
C1340       C  0.85272353  0.36783832  0.93572890    -0.23100
C1341       C  0.82532527  0.36262459  0.93361770     0.27300
C1342       C  0.80405087  0.33659800  0.93444545    -0.19800
C1343       C  0.77790345  0.33072337  0.93281708    -0.09500
C1344       C  0.77224005  0.35082504  0.93041269    -0.10000
C1345       C  0.79355546  0.37695751  0.92963497    -0.02900
C1346       C  0.81977423  0.38282629  0.93123610    -0.18000
H1347       H  0.96509864  0.43043962  0.92471329     0.11000
H1348       H  0.91951883  0.42028687  0.92114943     0.11100
H1349       H  0.89289458  0.37074834  0.94857256     0.10800
H1350       H  0.93815458  0.38000056  0.95167250     0.11900
H1351       H  0.87329560  0.40302319  0.92706096     0.12000
H1352       H  0.85435424  0.35272278  0.94002110     0.13900
H1353       H  0.80767566  0.32066308  0.93635692     0.10400
H1354       H  0.76218740  0.31038994  0.93358922     0.12500
H1355       H  0.79007636  0.39300441  0.92781429     0.09100
H1356       H  0.83550706  0.40324626  0.93080203     0.11800
C1357       C  0.42974185  0.02277264  0.94132160    -0.02800
C1358       C  0.43834456  0.02924026  0.93097074    -0.05400
C1359       C  0.45590589  0.05556363  0.92811881    -0.20400
C1360       C  0.46559558  0.07574975  0.93560688     0.25300
C1361       C  0.45655354  0.06924886  0.94590864    -0.18000
C1362       C  0.43877193  0.04310647  0.94870703    -0.08000
C1363       C  0.48460973  0.10353539  0.93254698    -0.18300
C1364       C  0.50386060  0.12047958  0.93903768    -0.23100
C1365       C  0.52324174  0.14832284  0.93631049     0.27300
C1366       C  0.54916786  0.15965461  0.94023008    -0.19800
C1367       C  0.56797856  0.18590160  0.93799886    -0.09500
C1368       C  0.56113895  0.20167097  0.93196831    -0.10000
C1369       C  0.53490401  0.19060921  0.92830195    -0.02900
C1370       C  0.51613108  0.16408422  0.93038717    -0.18000
H1371       H  0.43176666  0.01389524  0.92514737     0.11000
H1372       H  0.46237950  0.06010587  0.92010810     0.11100
H1373       H  0.46291527  0.08442290  0.95180081     0.10800
H1374       H  0.43199691  0.03868183  0.95667929     0.11900
H1375       H  0.48353812  0.10979103  0.92467265     0.12000
H1376       H  0.50659992  0.11325737  0.94647805     0.13900
H1377       H  0.55497927  0.14803025  0.94495884     0.10400
H1378       H  0.58783878  0.19393031  0.94112435     0.12500
H1379       H  0.52900747  0.20234210  0.92369363     0.09100
H1380       H  0.49603225  0.15604251  0.92751750     0.11800
C1381       C  0.59062497  0.55610445  0.93956704    -0.02800
C1382       C  0.61718753  0.56251799  0.93887733    -0.05400
C1383       C  0.62364799  0.54315453  0.93664198    -0.20400
C1384       C  0.60376356  0.51675210  0.93499706     0.25300
C1385       C  0.57695916  0.51035529  0.93549526    -0.18000
C1386       C  0.57052009  0.52988459  0.93777551    -0.08000
C1387       C  0.61245798  0.49708668  0.93297977    -0.18300
C1388       C  0.59608171  0.47084972  0.93166313    -0.23100
C1389       C  0.60522360  0.45130671  0.93022156     0.27300
C1390       C  0.58626569  0.42428984  0.93091747    -0.19800
C1391       C  0.59353128  0.40501945  0.92986856    -0.09500
C1392       C  0.62006686  0.41214158  0.92801751    -0.10000
C1393       C  0.63909679  0.43917423  0.92716619    -0.02900
C1394       C  0.63181583  0.45852135  0.92820773    -0.18000
H1395       H  0.63302237  0.58258335  0.94026383     0.11000
H1396       H  0.64440879  0.54885776  0.93630068     0.11100
H1397       H  0.56081648  0.49046999  0.93419302     0.10800
H1398       H  0.54986768  0.52457680  0.93813771     0.11900
H1399       H  0.63368466  0.50489577  0.93292654     0.12000
H1400       H  0.57482597  0.46280035  0.93200764     0.13900
H1401       H  0.56564230  0.41797853  0.93240259     0.10400
H1402       H  0.57823150  0.38451674  0.93063820     0.12500
H1403       H  0.65965843  0.44549148  0.92561048     0.09100
H1404       H  0.64716729  0.47892347  0.92732003     0.11800
C1405       C  0.99195348  0.43974455  0.95621478    -0.02800
C1406       C  0.98291480  0.45670602  0.95288898    -0.05400
C1407       C  0.98211238  0.47462902  0.95984704    -0.20400
C1408       C  0.99089718  0.47638650  0.97018864     0.25300
C1409       C  0.99891867  0.45866791  0.97360208    -0.18000
C1410       C  0.99935942  0.44055773  0.96670264    -0.08000
C1411       C  0.99143067  0.49692957  0.97711106    -0.18300
C1412       C  0.00719938  0.50676044  0.98559270    -0.23100
C1413       C  0.00797687  0.52815561  0.99201254     0.27300
C1414       C  0.01233798  0.52867919  0.00279645    -0.19800
C1415       C  0.01098821  0.54746269  0.00907442    -0.09500
C1416       C  0.00567873  0.56625826  0.00462830    -0.10000
C1417       C  0.00302875  0.56671966  0.99377211    -0.02900
C1418       C  0.00429988  0.54798942  0.98751990    -0.18000
H1419       H  0.97753928  0.45697580  0.94483574     0.11000
H1420       H  0.97552970  0.48784066  0.95704218     0.11100
H1421       H  0.00481989  0.45858571  0.98159322     0.10800
H1422       H  0.00593033  0.42738848  0.96955387     0.11900
H1423       H  0.97886154  0.50490809  0.97488276     0.12000
H1424       H  0.01964435  0.49885751  0.98805831     0.13900
H1425       H  0.01555253  0.51380059  0.00641865     0.10400
H1426       H  0.01249026  0.54622138  0.01742406     0.12500
H1427       H  0.99920730  0.58118615  0.99012986     0.09100
H1428       H  0.00205278  0.54888427  0.97919320     0.11800
C1429       C  0.55050196  0.55312579  0.95662320    -0.02800
C1430       C  0.55954768  0.53828215  0.96200548    -0.05400
C1431       C  0.54308457  0.51902303  0.96925020    -0.20400
C1432       C  0.51745863  0.51451992  0.97137387     0.25300
C1433       C  0.50823896  0.52891550  0.96570657    -0.18000
C1434       C  0.52461861  0.54802301  0.95847065    -0.08000
C1435       C  0.50098312  0.49459122  0.97944995    -0.18300
C1436       C  0.48018277  0.49398127  0.98434861    -0.23100
C1437       C  0.46397656  0.47425204  0.99252620     0.27300
C1438       C  0.43829064  0.46953417  0.99468308    -0.19800
C1439       C  0.42222134  0.45066003  0.00212539    -0.09500
C1440       C  0.43172681  0.43641757  0.00766263    -0.10000
C1441       C  0.45762456  0.44165079  0.00572667    -0.02900
C1442       C  0.47363050  0.46041357  0.99831586    -0.18000
H1443       H  0.57958543  0.54217278  0.96088739     0.11000
H1444       H  0.55068178  0.50811144  0.97342903     0.11100
H1445       H  0.48839954  0.52554765  0.96676159     0.10800
H1446       H  0.51713569  0.55913347  0.95437322     0.11900
H1447       H  0.50671181  0.48018479  0.98149490     0.12000
H1448       H  0.47438292  0.50833100  0.98229721     0.13900
H1449       H  0.43037481  0.48002025  0.99040834     0.10400
H1450       H  0.40215985  0.44663073  0.00330717     0.12500
H1451       H  0.46544823  0.43096488  0.00991757     0.09100
H1452       H  0.49353712  0.46399779  0.99723585     0.11800
C1453       C  0.56495275  0.00473995  0.00941303    -0.02800
C1454       C  0.53867021  0.99201657  0.01298915    -0.05400
C1455       C  0.51804833  0.98883869  0.00639507    -0.20400
C1456       C  0.52322907  0.99836120  0.99610265     0.25300
C1457       C  0.54949867  0.01032817  0.99244735    -0.18000
C1458       C  0.57007851  0.01361552  0.99905122    -0.08000
C1459       C  0.50065508  0.99498546  0.98945772    -0.18300
C1460       C  0.50350290  0.00866647  0.98058766    -0.23100
C1461       C  0.48081975  0.00475392  0.97390979     0.27300
C1462       C  0.48538029  0.01167972  0.96331380    -0.19800
C1463       C  0.46426019  0.00636467  0.95658783    -0.09500
C1464       C  0.43822200  0.99444652  0.96038542    -0.10000
C1465       C  0.43387855  0.98896901  0.97108454    -0.02900
C1466       C  0.45489902  0.99414760  0.97779287    -0.18000
H1467       H  0.53413977  0.98550701  0.02098768     0.11000
H1468       H  0.49803312  0.97941567  0.00942492     0.11100
H1469       H  0.55444182  0.01712709  0.98450063     0.10800
H1470       H  0.59013588  0.02331440  0.99606575     0.11900
H1471       H  0.48088427  0.98064460  0.99210475     0.12000
H1472       H  0.52318992  0.02286506  0.97783939     0.13900
H1473       H  0.50517810  0.02016552  0.96014117     0.10400
H1474       H  0.46814038  0.01033163  0.94835073     0.12500
H1475       H  0.41397489  0.97990712  0.97421604     0.09100
H1476       H  0.45061559  0.98954781  0.98595611     0.11800
C1477       C  0.56953784  0.96832939  0.02589224    -0.02800
C1478       C  0.56744635  0.95065667  0.01813323    -0.05400
C1479       C  0.54860234  0.92377471  0.01891895    -0.20400
C1480       C  0.53116849  0.91400675  0.02742181     0.25300
C1481       C  0.53367765  0.93175332  0.03532132    -0.18000
C1482       C  0.55264894  0.95869324  0.03452364    -0.08000
C1483       C  0.51091756  0.88527938  0.02769910    -0.18300
C1484       C  0.48840864  0.87478434  0.03334879    -0.23100
C1485       C  0.46751741  0.84629677  0.03292890     0.27300
C1486       C  0.44123006  0.83894167  0.03533617    -0.19800
C1487       C  0.42097271  0.81243443  0.03495188    -0.09500
C1488       C  0.42659520  0.79250257  0.03231371    -0.10000
C1489       C  0.45302425  0.79984483  0.03005639    -0.02900
C1490       C  0.47322966  0.82638206  0.03035589    -0.18000
H1491       H  0.58030611  0.95784614  0.01139563     0.11000
H1492       H  0.54730959  0.91062272  0.01275783     0.11100
H1493       H  0.52114010  0.92502898  0.04212863     0.10800
H1494       H  0.55359709  0.97210090  0.04047432     0.11900
H1495       H  0.51393536  0.87259886  0.02244437     0.12000
H1496       H  0.48407576  0.88767354  0.03791052     0.13900
H1497       H  0.43627575  0.85382241  0.03743636     0.10400
H1498       H  0.40099844  0.80763761  0.03685231     0.12500
H1499       H  0.45822986  0.78516840  0.02801943     0.09100
H1500       H  0.49332539  0.83108232  0.02874110     0.11800
C1501       C  0.21318438  0.63795328  0.03480299    -0.02800
C1502       C  0.19326403  0.61113416  0.03448450    -0.05400
C1503       C  0.16643125  0.60373647  0.03397522    -0.20400
C1504       C  0.15873208  0.62286886  0.03367733     0.25300
C1505       C  0.17856744  0.64971324  0.03421614    -0.18000
C1506       C  0.20543213  0.65712457  0.03474375    -0.08000
C1507       C  0.12989437  0.61392005  0.03283841    -0.18300
C1508       C  0.12059063  0.62915023  0.02897916    -0.23100
C1509       C  0.09190883  0.61975984  0.02718245     0.27300
C1510       C  0.08526862  0.63400342  0.02017642    -0.19800
C1511       C  0.05876588  0.62580320  0.01797952    -0.09500
C1512       C  0.03829013  0.60337260  0.02282192    -0.10000
C1513       C  0.04460516  0.58934040  0.03002510    -0.02900
C1514       C  0.07122548  0.59742561  0.03220539    -0.18000
H1515       H  0.19823688  0.59568595  0.03452984     0.11000
H1516       H  0.15161742  0.58292707  0.03364783     0.11100
H1517       H  0.17354137  0.66510755  0.03436250     0.10800
H1518       H  0.22003492  0.67793768  0.03513606     0.11900
H1519       H  0.11603757  0.59343974  0.03474641     0.12000
H1520       H  0.13460395  0.64891752  0.02626539     0.13900
H1521       H  0.10066337  0.65135243  0.01625993     0.10400
H1522       H  0.05408592  0.63685449  0.01243566     0.12500
H1523       H  0.02894700  0.57208821  0.03389488     0.09100
H1524       H  0.07539718  0.58631300  0.03787558     0.11800
C1525       C  0.36719637  0.58138507  0.03270256    -0.02800
C1526       C  0.39250784  0.58747870  0.02926976    -0.05400
C1527       C  0.39914193  0.56772694  0.02836682    -0.20400
C1528       C  0.38074298  0.54131325  0.03085100     0.25300
C1529       C  0.35545037  0.53524586  0.03441876    -0.18000
C1530       C  0.34882346  0.55502705  0.03530912    -0.08000
C1531       C  0.38897574  0.52111692  0.02948356    -0.18300
C1532       C  0.37294309  0.49490241  0.03098954    -0.23100
C1533       C  0.38084853  0.47468739  0.02914637     0.27300
C1534       C  0.36065243  0.44809365  0.02849979    -0.19800
C1535       C  0.36663576  0.42829805  0.02646330    -0.09500
C1536       C  0.39301269  0.43454219  0.02510462    -0.10000
C1537       C  0.41341233  0.46094700  0.02611168    -0.02900
C1538       C  0.40745358  0.48088842  0.02809492    -0.18000
H1539       H  0.40721247  0.60746230  0.02712529     0.11000
H1540       H  0.41876827  0.57313815  0.02561475     0.11100
H1541       H  0.34051772  0.51542884  0.03656721     0.10800
H1542       H  0.32923983  0.54954666  0.03808993     0.11900
H1543       H  0.40905243  0.52838819  0.02677745     0.12000
H1544       H  0.35253757  0.48732022  0.03326867     0.13900
H1545       H  0.34004244  0.44261732  0.02937932     0.10400
H1546       H  0.35058039  0.40806527  0.02573048     0.12500
H1547       H  0.43394589  0.46611330  0.02534240     0.09100
H1548       H  0.42377122  0.50089599  0.02887420     0.11800
C1549       C  0.72708383  0.65792228  0.20855341    -0.02800
C1550       C  0.74165198  0.65941458  0.21749464    -0.05400
C1551       C  0.73389564  0.66359054  0.22726363    -0.20400
C1552       C  0.71144203  0.66637712  0.22830251     0.25300
C1553       C  0.69549410  0.66243408  0.21947358    -0.18000
C1554       C  0.70329258  0.65826467  0.20970745    -0.08000
C1555       C  0.70837841  0.67808850  0.23809985    -0.18300
C1556       C  0.68673783  0.67947653  0.24074015    -0.23100
C1557       C  0.68817501  0.69762969  0.24910063     0.27300
C1558       C  0.66717167  0.69014476  0.25614038    -0.19800
C1559       C  0.66945062  0.70711992  0.26429784    -0.09500
C1560       C  0.69243354  0.73210838  0.26528126    -0.10000
C1561       C  0.71251431  0.74007280  0.25779163    -0.02900
C1562       C  0.71051066  0.72305122  0.24985902    -0.18000
H1563       H  0.76047960  0.66017852  0.21685329     0.11000
H1564       H  0.74665867  0.66670431  0.23390557     0.11100
H1565       H  0.67826874  0.66474657  0.21986153     0.10800
H1566       H  0.69185945  0.65747195  0.20290803     0.11900
H1567       H  0.72585362  0.68803544  0.24306357     0.12000
H1568       H  0.66811938  0.66802553  0.23659134     0.13900
H1569       H  0.64955556  0.67079701  0.25558788     0.10400
H1570       H  0.65385537  0.70026264  0.27004679     0.12500
H1571       H  0.73030015  0.75933254  0.25826645     0.09100
H1572       H  0.72658128  0.72978445  0.24431939     0.11800
C1573       C  0.97493475  0.29957634  0.20235289    -0.02800
C1574       C  0.96071050  0.29433011  0.21169222    -0.05400
C1575       C  0.97377806  0.30725677  0.22092300    -0.20400
C1576       C  0.00131030  0.32525559  0.22100630     0.25300
C1577       C  0.01485877  0.33223580  0.21145843    -0.18000
C1578       C  0.00182801  0.31948741  0.20227144    -0.08000
C1579       C  0.01566763  0.33491300  0.23116139    -0.18300
C1580       C  0.04077474  0.33981569  0.23259112    -0.23100
C1581       C  0.05464884  0.34506563  0.24288597     0.27300
C1582       C  0.07529700  0.33943616  0.24400184    -0.19800
C1583       C  0.08733799  0.34154434  0.25368847    -0.09500
C1584       C  0.07958904  0.35006763  0.26246513    -0.10000
C1585       C  0.05979338  0.35688000  0.26130191    -0.02900
C1586       C  0.04752593  0.35458018  0.25160590    -0.18000
H1587       H  0.94005934  0.27890524  0.21203261     0.11000
H1588       H  0.96272789  0.30182645  0.22813704     0.11100
H1589       H  0.03578932  0.34683877  0.21111398     0.10800
H1590       H  0.01320505  0.32415225  0.19514956     0.11900
H1591       H  0.00430219  0.33494077  0.23781023     0.12000
H1592       H  0.05091020  0.33723553  0.22603605     0.13900
H1593       H  0.08118688  0.33198268  0.23746376     0.10400
H1594       H  0.10150039  0.33483676  0.25446466     0.12500
H1595       H  0.05277372  0.36255812  0.26804323     0.09100
H1596       H  0.03208049  0.35958878  0.25105490     0.11800
C1597       C  0.34052654  0.05405553  0.20324761    -0.02800
C1598       C  0.36345716  0.05339352  0.20613234    -0.05400
C1599       C  0.36404802  0.04116510  0.21547774    -0.20400
C1600       C  0.34153050  0.02887964  0.22188842     0.25300
C1601       C  0.31918260  0.03079661  0.21921492    -0.18000
C1602       C  0.31870964  0.04318981  0.21001229    -0.08000
C1603       C  0.34144058  0.01427982  0.23138411    -0.18300
C1604       C  0.31919261  0.99223697  0.23448011    -0.23100
C1605       C  0.31566768  0.97827961  0.24457331     0.27300
C1606       C  0.29034497  0.95682521  0.24681410    -0.19800
C1607       C  0.28414318  0.94603436  0.25680490    -0.09500
C1608       C  0.30339761  0.95577201  0.26469222    -0.10000
C1609       C  0.32916956  0.97618850  0.26236890    -0.02900
C1610       C  0.33538340  0.98728197  0.25237691    -0.18000
H1611       H  0.38042791  0.06131177  0.20100204     0.11000
H1612       H  0.38167844  0.04034046  0.21749236     0.11100
H1613       H  0.30192642  0.02257987  0.22420896     0.10800
H1614       H  0.30094007  0.04379524  0.20805238     0.11900
H1615       H  0.35985836  0.02179784  0.23568543     0.12000
H1616       H  0.30178993  0.98452961  0.22947574     0.13900
H1617       H  0.27468566  0.94955669  0.24101472     0.10400
H1618       H  0.26376375  0.93139139  0.25856328     0.12500
H1619       H  0.34399643  0.98471496  0.26847358     0.09100
H1620       H  0.35511148  0.00374941  0.25107056     0.11800
C1621       C  0.77056086  0.29981536  0.20213534    -0.02800
C1622       C  0.76437353  0.27361470  0.20044764    -0.05400
C1623       C  0.78444758  0.26766228  0.19864237    -0.20400
C1624       C  0.81131293  0.28762594  0.19852977     0.25300
C1625       C  0.81753953  0.31389357  0.20018842    -0.18000
C1626       C  0.79745267  0.31983755  0.20198455    -0.08000
C1627       C  0.83180634  0.28002418  0.19644238    -0.18300
C1628       C  0.85824259  0.29620258  0.19770763    -0.23100
C1629       C  0.87849780  0.28841332  0.19553173     0.27300
C1630       C  0.90495778  0.30842737  0.19393081    -0.19800
C1631       C  0.92474954  0.30220087  0.19197417    -0.09500
C1632       C  0.91861871  0.27578337  0.19166529    -0.10000
C1633       C  0.89229622  0.25569984  0.19342629    -0.02900
C1634       C  0.87241765  0.26188807  0.19533317    -0.18000
H1635       H  0.74399089  0.25757382  0.20043569     0.11000
H1636       H  0.77891457  0.24726835  0.19733941     0.11100
H1637       H  0.83775800  0.33013800  0.19998346     0.10800
H1638       H  0.80317211  0.34025855  0.20324511     0.11900
H1639       H  0.82450597  0.26004948  0.19369928     0.12000
H1640       H  0.86582809  0.31631705  0.20029287     0.13900
H1641       H  0.91031365  0.32901485  0.19408989     0.10400
H1642       H  0.94484911  0.31801503  0.19055533     0.12500
H1643       H  0.88717432  0.23520004  0.19337932     0.09100
H1644       H  0.85254751  0.24582951  0.19684317     0.11800
C1645       C  0.70616044  0.44835892  0.20497344    -0.02800
C1646       C  0.68519158  0.45366665  0.20463295    -0.05400
C1647       C  0.69010366  0.47939894  0.20328162    -0.20400
C1648       C  0.71606613  0.50073956  0.20227221     0.25300
C1649       C  0.73725419  0.49569082  0.20266728    -0.18000
C1650       C  0.73232010  0.46977118  0.20401534    -0.08000
C1651       C  0.71961992  0.52745526  0.20032857    -0.18300
C1652       C  0.74241312  0.55054530  0.20179884    -0.23100
C1653       C  0.74446994  0.57665975  0.19991059     0.27300
C1654       C  0.76320131  0.59889842  0.20552750    -0.19800
C1655       C  0.76574555  0.62371878  0.20383299    -0.09500
C1656       C  0.74966273  0.62672223  0.19645513    -0.10000
C1657       C  0.73124333  0.60471144  0.19072322    -0.02900
C1658       C  0.72864664  0.57993366  0.19240570    -0.18000
H1659       H  0.66479168  0.43799820  0.20529672     0.11000
H1660       H  0.67336605  0.48260053  0.20297191     0.11100
H1661       H  0.75754367  0.51148506  0.20171199     0.10800
H1662       H  0.74904467  0.46659236  0.20421887     0.11900
H1663       H  0.70198724  0.52801036  0.19800843     0.12000
H1664       H  0.75964594  0.55052245  0.20500204     0.13900
H1665       H  0.77594404  0.59705971  0.21122405     0.10400
H1666       H  0.78078894  0.64068438  0.20803066     0.12500
H1667       H  0.71922816  0.60693404  0.18480097     0.09100
H1668       H  0.71471182  0.56358486  0.18762535     0.11800
C1669       C  0.55704287  0.23638062  0.20864632    -0.02800
C1670       C  0.53696341  0.24213679  0.21097341    -0.05400
C1671       C  0.51014338  0.22286450  0.20993060    -0.20400
C1672       C  0.50258384  0.19740212  0.20641381     0.25300
C1673       C  0.52257004  0.19125679  0.20438972    -0.18000
C1674       C  0.54947782  0.21052347  0.20550800    -0.08000
C1675       C  0.47374852  0.17791451  0.20496640    -0.18300
C1676       C  0.46453026  0.15843080  0.19783273    -0.23100
C1677       C  0.43578435  0.14020353  0.19555117     0.27300
C1678       C  0.42872632  0.12800952  0.18575590    -0.19800
C1679       C  0.40220437  0.11032497  0.18325336    -0.09500
C1680       C  0.38199989  0.10420769  0.19049639    -0.10000
C1681       C  0.38882345  0.11629804  0.20032355    -0.02900
C1682       C  0.41550046  0.13411996  0.20285236    -0.18000
H1683       H  0.54185420  0.26158229  0.21358969     0.11000
H1684       H  0.49520972  0.22807676  0.21167828     0.11100
H1685       H  0.51752363  0.17159909  0.20198742     0.10800
H1686       H  0.56427039  0.20518671  0.20373363     0.11900
H1687       H  0.45975108  0.18120528  0.20929000     0.12000
H1688       H  0.47866006  0.15684114  0.19286828     0.13900
H1689       H  0.44382969  0.13219799  0.17998858     0.10400
H1690       H  0.39739520  0.10107609  0.17566511     0.12500
H1691       H  0.37352384  0.11188807  0.20601673     0.09100
H1692       H  0.42014444  0.14265392  0.21056087     0.11800
C1693       C  0.94345879  0.66545329  0.09355526    -0.02800
C1694       C  0.96626998  0.68873280  0.09028077    -0.05400
C1695       C  0.97883446  0.68912460  0.08089547    -0.20400
C1696       C  0.96924528  0.66606883  0.07487455     0.25300
C1697       C  0.94574316  0.64334113  0.07792915    -0.18000
C1698       C  0.93301006  0.64310568  0.08709241    -0.08000
C1699       C  0.98348564  0.66545241  0.06539671    -0.18300
C1700       C  0.98557576  0.64405249  0.06318494    -0.23100
C1701       C  0.99494411  0.63904586  0.05313976     0.27300
C1702       C  0.99928053  0.61754218  0.05257340    -0.19800
C1703       C  0.00288541  0.60861639  0.04296960    -0.09500
C1704       C  0.00198848  0.62088426  0.03371189    -0.10000
C1705       C  0.99935690  0.64340017  0.03428622    -0.02900
C1706       C  0.99600544  0.65251409  0.04389726    -0.18000
H1707       H  0.97506181  0.70612384  0.09515625     0.11000
H1708       H  0.99672020  0.70701550  0.07859837     0.11100
H1709       H  0.93729463  0.62555750  0.07327144     0.10800
H1710       H  0.91526029  0.62497252  0.08930679     0.11900
H1711       H  0.99210104  0.68257288  0.06030221     0.12000
H1712       H  0.97875700  0.62841711  0.06898505     0.13900
H1713       H  0.99834674  0.60662497  0.05954107     0.10400
H1714       H  0.00411095  0.59081264  0.04274696     0.12500
H1715       H  0.99832470  0.65301980  0.02722976     0.09100
H1716       H  0.99241097  0.66888930  0.04392657     0.11800
C1717       C  0.78167454  0.66170446  0.17784481    -0.02800
C1718       C  0.80186211  0.65756013  0.18170186    -0.05400
C1719       C  0.82034779  0.65710707  0.17492700    -0.20400
C1720       C  0.81939469  0.66141720  0.16421254     0.25300
C1721       C  0.79859889  0.66458954  0.16031325    -0.18000
C1722       C  0.78005388  0.66486441  0.16706994    -0.08000
C1723       C  0.84023794  0.66240667  0.15730640    -0.18300
C1724       C  0.84874413  0.67755595  0.14864748    -0.23100
C1725       C  0.86883467  0.67810093  0.14138468     0.27300
C1726       C  0.86893523  0.68570123  0.13097986    -0.19800
C1727       C  0.88553751  0.68379836  0.12362552    -0.09500
C1728       C  0.90264587  0.67458448  0.12658821    -0.10000
C1729       C  0.90387373  0.66876642  0.13713048    -0.02900
C1730       C  0.88729540  0.67061613  0.14446991    -0.18000
H1731       H  0.80416132  0.65589650  0.18997618     0.11000
H1732       H  0.83605645  0.65439514  0.17810928     0.11100
H1733       H  0.79662380  0.66692246  0.15205519     0.10800
H1734       H  0.76457858  0.66791653  0.16387883     0.11900
H1735       H  0.84901879  0.65065819  0.15961075     0.12000
H1736       H  0.83986965  0.68935183  0.14651476     0.13900
H1737       H  0.85515467  0.69186875  0.12841933     0.10400
H1738       H  0.88378881  0.68797720  0.11553424     0.12500
H1739       H  0.91705354  0.66178963  0.13963156     0.09100
H1740       H  0.88872956  0.66569283  0.15247172     0.11800
C1741       C  0.35135449  0.10785997  0.17131674    -0.02800
C1742       C  0.34811218  0.10290341  0.16058444    -0.05400
C1743       C  0.35082405  0.12250831  0.15362424    -0.20400
C1744       C  0.35614745  0.14723465  0.15728230     0.25300
C1745       C  0.36098714  0.15272667  0.16799821    -0.18000
C1746       C  0.35864280  0.13317297  0.17495530    -0.08000
C1747       C  0.35566374  0.16632008  0.14971684    -0.18300
C1748       C  0.34870842  0.18423483  0.15235985    -0.23100
C1749       C  0.34709187  0.20279208  0.14483728     0.27300
C1750       C  0.35062553  0.22676040  0.14861490    -0.19800
C1751       C  0.35069190  0.24546987  0.14182438    -0.09500
C1752       C  0.34665088  0.24044478  0.13109470    -0.10000
C1753       C  0.34167555  0.21590856  0.12732866    -0.02900
C1754       C  0.34192836  0.19721416  0.13413024    -0.18000
H1755       H  0.34243188  0.08347767  0.15762371     0.11000
H1756       H  0.34740794  0.11788680  0.14541703     0.11100
H1757       H  0.36606964  0.17187375  0.17106763     0.10800
H1758       H  0.36099069  0.13735362  0.18321172     0.11900
H1759       H  0.35985105  0.16453217  0.14163894     0.12000
H1760       H  0.34442955  0.18588095  0.16044334     0.13900
H1761       H  0.35431880  0.23145569  0.15682292     0.10400
H1762       H  0.35470621  0.26429071  0.14491811     0.12500
H1763       H  0.33888496  0.21169377  0.11906796     0.09100
H1764       H  0.33829921  0.17861764  0.13096996     0.11800
C1765       C  0.37369835  0.38127456  0.03711516    -0.02800
C1766       C  0.38371747  0.39812766  0.04574481    -0.05400
C1767       C  0.37575908  0.38815785  0.05582397    -0.20400
C1768       C  0.35755793  0.36119741  0.05751328     0.25300
C1769       C  0.34578524  0.34480904  0.04881572    -0.18000
C1770       C  0.35390216  0.35476404  0.03873317    -0.08000
C1771       C  0.35526204  0.35044530  0.06823724    -0.18300
C1772       C  0.33685482  0.32599718  0.07142776    -0.23100
C1773       C  0.34030915  0.31501536  0.08139207     0.27300
C1774       C  0.31868232  0.29988592  0.08800386    -0.19800
C1775       C  0.32236046  0.28978491  0.09741856    -0.09500
C1776       C  0.34756217  0.29392989  0.10016494    -0.10000
C1777       C  0.36893623  0.30860243  0.09340355    -0.02900
C1778       C  0.36538699  0.31900277  0.08416173    -0.18000
H1779       H  0.39936750  0.41847251  0.04479885     0.11000
H1780       H  0.38525216  0.40123295  0.06237027     0.11100
H1781       H  0.33191565  0.32389550  0.04973722     0.10800
H1782       H  0.34594233  0.34130568  0.03220841     0.11900
H1783       H  0.37093916  0.36289677  0.07368374     0.12000
H1784       H  0.31957732  0.31361832  0.06665596     0.13900
H1785       H  0.29914323  0.29648458  0.08600950     0.10400
H1786       H  0.30567636  0.27923377  0.10261508     0.12500
H1787       H  0.38857597  0.31211553  0.09529343     0.09100
H1788       H  0.38230313  0.32999098  0.07910339     0.11800
C1789       C  0.91483364  0.23403322  0.17540384    -0.02800
C1790       C  0.90118920  0.24375235  0.16957304    -0.05400
C1791       C  0.88189569  0.22756014  0.16228151    -0.20400
C1792       C  0.87611459  0.20148488  0.16054321     0.25300
C1793       C  0.88938298  0.19159879  0.16657065    -0.18000
C1794       C  0.90861363  0.20776859  0.17386087    -0.08000
C1795       C  0.85600852  0.18541310  0.15245634    -0.18300
C1796       C  0.85488858  0.16464670  0.14741150    -0.23100
C1797       C  0.83543024  0.15000987  0.13888314     0.27300
C1798       C  0.82918088  0.12411977  0.13637593    -0.19800
C1799       C  0.81025965  0.10964504  0.12864440    -0.09500
C1800       C  0.79729213  0.12088124  0.12328829    -0.10000
C1801       C  0.80425649  0.14700289  0.12550928    -0.02900
C1802       C  0.82327390  0.16150935  0.13309312    -0.18000
H1803       H  0.90602519  0.26408357  0.17039685     0.11000
H1804       H  0.87191582  0.23567046  0.15777203     0.11100
H1805       H  0.88499073  0.17143360  0.16572119     0.10800
H1806       H  0.91889184  0.19980347  0.17826264     0.11900
H1807       H  0.84204112  0.19176587  0.15040397     0.12000
H1808       H  0.86859733  0.15799238  0.14953551     0.13900
H1809       H  0.83842988  0.11482345  0.14060388     0.10400
H1810       H  0.80496679  0.08938932  0.12717315     0.12500
H1811       H  0.79463054  0.15613832  0.12143373     0.09100
H1812       H  0.82825418  0.18171310  0.13434603     0.11800
C1813       C  0.73570767  0.06010015  0.09564582    -0.02800
C1814       C  0.71029730  0.03760915  0.09633774    -0.05400
C1815       C  0.69609311  0.02467735  0.08735249    -0.20400
C1816       C  0.70691141  0.03431724  0.07744335     0.25300
C1817       C  0.73318626  0.05559358  0.07681630    -0.18000
C1818       C  0.74744478  0.06845602  0.08583317    -0.08000
C1819       C  0.69114707  0.02392089  0.06763815    -0.18300
C1820       C  0.66430233  0.01127395  0.06724103    -0.23100
C1821       C  0.64879700  0.00583140  0.05735406     0.27300
C1822       C  0.62345039  0.00315586  0.05771219    -0.19800
C1823       C  0.60999563  0.00237777  0.04853231    -0.09500
C1824       C  0.62131760  0.00352928  0.03881065    -0.10000
C1825       C  0.64568593  0.00420387  0.03841869    -0.02900
C1826       C  0.65923760  0.00514949  0.04758123    -0.18000
H1827       H  0.70093223  0.03076989  0.10385579     0.11000
H1828       H  0.67642913  0.00769806  0.08823534     0.11100
H1829       H  0.74219234  0.06324791  0.06930307     0.10800
H1830       H  0.76686231  0.08595946  0.08509749     0.11900
H1831       H  0.70228375  0.02966111  0.06043673     0.12000
H1832       H  0.65324890  0.00748718  0.07441396     0.13900
H1833       H  0.61481569  0.00350836  0.06511057     0.10400
H1834       H  0.59185499  0.00304854  0.04906193     0.12500
H1835       H  0.65494221  0.00549583  0.03098505     0.09100
H1836       H  0.67823802  0.00624372  0.04692254     0.11800
C1837       C  0.92273627  0.03415803  0.09449972    -0.02800
C1838       C  0.89614503  0.01359803  0.09395114    -0.05400
C1839       C  0.87536246  0.01881459  0.09483322    -0.20400
C1840       C  0.88044254  0.04468640  0.09618767     0.25300
C1841       C  0.90699834  0.06546576  0.09650378    -0.18000
C1842       C  0.92789326  0.06023344  0.09565635    -0.08000
C1843       C  0.85744874  0.04854621  0.09806959    -0.18300
C1844       C  0.85750696  0.07130838  0.09634648    -0.23100
C1845       C  0.83462807  0.07504658  0.09891517     0.27300
C1846       C  0.83912429  0.10088212  0.09983109    -0.19800
C1847       C  0.81866426  0.10533187  0.10284469    -0.09500
C1848       C  0.79315851  0.08402419  0.10491650    -0.10000
C1849       C  0.78826546  0.05822193  0.10358459    -0.02900
C1850       C  0.80868112  0.05372036  0.10059084    -0.18000
H1851       H  0.89117594  0.99331224  0.09296423     0.11000
H1852       H  0.85512191  0.00243250  0.09457797     0.11100
H1853       H  0.91178095  0.08562890  0.09778026     0.10800
H1854       H  0.94803150  0.07662353  0.09615855     0.11900
H1855       H  0.83979903  0.03157423  0.10113170     0.12000
H1856       H  0.87528077  0.08823024  0.09327725     0.13900
H1857       H  0.85869310  0.11771222  0.09842654     0.10400
H1858       H  0.82274916  0.12542536  0.10362783     0.12500
H1859       H  0.76869395  0.04151484  0.10506794     0.09100
H1860       H  0.80381537  0.03347777  0.09959538     0.11800
C1861       C  0.13654107  0.10004601  0.10197938    -0.02800
C1862       C  0.15300321  0.09457343  0.10825240    -0.05400
C1863       C  0.17915935  0.11418083  0.11037073    -0.20400
C1864       C  0.18974115  0.13956387  0.10608945     0.25300
C1865       C  0.17338778  0.14513663  0.09975509    -0.18000
C1866       C  0.14694827  0.12559049  0.09779582    -0.08000
C1867       C  0.21725680  0.16007685  0.10897262    -0.18300
C1868       C  0.23364275  0.18016982  0.10269089    -0.23100
C1869       C  0.26096724  0.20039686  0.10598378     0.27300
C1870       C  0.28151082  0.21164967  0.09862743    -0.19800
C1871       C  0.30727024  0.23092795  0.10161890    -0.09500
C1872       C  0.31273270  0.23988279  0.11195982    -0.10000
C1873       C  0.29215083  0.22871838  0.11928267    -0.02900
C1874       C  0.26659020  0.20917398  0.11634978    -0.18000
H1875       H  0.14551531  0.07522915  0.11170978     0.11000
H1876       H  0.19123552  0.10946990  0.11537373     0.11100
H1877       H  0.18078092  0.16470679  0.09653684     0.10800
H1878       H  0.13472239  0.13039601  0.09293539     0.11900
H1879       H  0.22473480  0.15775028  0.11643261     0.12000
H1880       H  0.22738017  0.18117556  0.09480416     0.13900
H1881       H  0.27766107  0.20534301  0.09058141     0.10400
H1882       H  0.32285849  0.23913422  0.09584767     0.12500
H1883       H  0.29575487  0.23564560  0.12724632     0.09100
H1884       H  0.25107239  0.20148067  0.12215293     0.11800
C1885       C  0.93414383  0.70582312  0.10687113    -0.02800
C1886       C  0.92724920  0.71174215  0.09715807    -0.05400
C1887       C  0.93317885  0.73757827  0.09484590    -0.20400
C1888       C  0.94629179  0.75799878  0.10215829     0.25300
C1889       C  0.95311273  0.75191616  0.11188815    -0.18000
C1890       C  0.94718790  0.72617798  0.11417624    -0.08000
C1891       C  0.95160080  0.78510554  0.09960961    -0.18300
C1892       C  0.97147864  0.80714064  0.10401746    -0.23100
C1893       C  0.97712499  0.83444600  0.10169545     0.27300
C1894       C  0.00280583  0.85570793  0.10354249    -0.19800
C1895       C  0.00888472  0.88178844  0.10188502    -0.09500
C1896       C  0.98925538  0.88743024  0.09853645    -0.10000
C1897       C  0.96345739  0.86608453  0.09668978    -0.02900
C1898       C  0.95745566  0.83991536  0.09823119    -0.18000
H1899       H  0.91687431  0.69628668  0.09145919     0.11000
H1900       H  0.92747321  0.74163088  0.08733240     0.11100
H1901       H  0.96245005  0.76678739  0.11786681     0.10800
H1902       H  0.95259609  0.72201912  0.12172808     0.11900
H1903       H  0.93942209  0.78692322  0.09361293     0.12000
H1904       H  0.98516445  0.80536653  0.10926259     0.13900
H1905       H  0.01829693  0.85213023  0.10631917     0.10400
H1906       H  0.02890869  0.89750343  0.10348217     0.12500
H1907       H  0.94775992  0.86951991  0.09412130     0.09100
H1908       H  0.93724000  0.82412220  0.09697917     0.11800
C1909       C  0.65134259  0.94428568  0.76029589    -0.02800
C1910       C  0.64663735  0.92814699  0.75158991    -0.05400
C1911       C  0.64945185  0.93851615  0.74153107    -0.20400
C1912       C  0.65665023  0.96507525  0.73996820     0.25300
C1913       C  0.65930935  0.98061304  0.74870285    -0.18000
C1914       C  0.65682364  0.97032555  0.75875267    -0.08000
C1915       C  0.66537531  0.97673306  0.72940391    -0.18300
C1916       C  0.66900806  0.00038341  0.72633473    -0.23100
C1917       C  0.68334880  0.01313719  0.71655498     0.27300
C1918       C  0.67568146  0.02796772  0.71033956    -0.19800
C1919       C  0.68918107  0.03970316  0.70104102    -0.09500
C1920       C  0.71104635  0.03740223  0.69799091    -0.10000
C1921       C  0.71923193  0.02345956  0.70450547    -0.02900
C1922       C  0.70554646  0.01141439  0.71361355    -0.18000
H1923       H  0.64301996  0.90822942  0.75253680     0.11000
H1924       H  0.64754251  0.92617094  0.73495519     0.11100
H1925       H  0.66531127  0.00126205  0.74788608     0.10800
H1926       H  0.66085807  0.98325545  0.76535404     0.11900
H1927       H  0.67055438  0.96581300  0.72401856     0.12000
H1928       H  0.66187474  0.01079893  0.73105645     0.13900
H1929       H  0.65880673  0.02982180  0.71252835     0.10400
H1930       H  0.68189460  0.04972034  0.69615496     0.12500
H1931       H  0.73631569  0.02174389  0.70254695     0.09100
H1932       H  0.71260341  0.00099260  0.71842966     0.11800
C1933       C  0.26543898  0.31099478  0.76586447    -0.02800
C1934       C  0.28689827  0.33464291  0.76201447    -0.05400
C1935       C  0.29974127  0.33461824  0.75277758    -0.20400
C1936       C  0.29187928  0.31087170  0.74745262     0.25300
C1937       C  0.26965655  0.28761250  0.75106157    -0.18000
C1938       C  0.25665888  0.28771184  0.76010169    -0.08000
C1939       C  0.30645958  0.31025816  0.73806404    -0.18300
C1940       C  0.30939888  0.28923278  0.73613573    -0.23100
C1941       C  0.31848706  0.28353364  0.72616185     0.27300
C1942       C  0.31449882  0.25798553  0.72486179    -0.19800
C1943       C  0.31783068  0.24947280  0.71516224    -0.09500
C1944       C  0.32634520  0.26663258  0.70660249    -0.10000
C1945       C  0.33198749  0.29272738  0.70796868    -0.02900
C1946       C  0.32819824  0.30121714  0.71767901    -0.18000
H1947       H  0.29441740  0.35290883  0.76629369     0.11000
H1948       H  0.31647062  0.35292158  0.75002280     0.11100
H1949       H  0.26221602  0.26918700  0.74688911     0.10800
H1950       H  0.23976770  0.26928985  0.76266700     0.11900
H1951       H  0.31407271  0.32683584  0.73272704     0.12000
H1952       H  0.30268609  0.27389744  0.74205224     0.13900
H1953       H  0.30689555  0.24384212  0.73119912     0.10400
H1954       H  0.31195364  0.22888642  0.71418256     0.12500
H1955       H  0.33770069  0.30600217  0.70136170     0.09100
H1956       H  0.33172376  0.32110188  0.71831608     0.11800
C1957       C  0.03678397  0.68711839  0.76710709    -0.02800
C1958       C  0.01237682  0.66348826  0.76794931    -0.05400
C1959       C  0.99782800  0.65042256  0.75907164    -0.20400
C1960       C  0.00720393  0.66071549  0.74910481     0.25300
C1961       C  0.03274764  0.68330240  0.74823297    -0.18000
C1962       C  0.04738065  0.69635403  0.75717257    -0.08000
C1963       C  0.98808051  0.64961942  0.74020892    -0.18300
C1964       C  0.99433333  0.65679278  0.73017957    -0.23100
C1965       C  0.97424227  0.65120831  0.72183964     0.27300
C1966       C  0.98267035  0.65526224  0.71144467    -0.19800
C1967       C  0.96637732  0.65568662  0.70352050    -0.09500
C1968       C  0.94121676  0.65202391  0.70578701    -0.10000
C1969       C  0.93194428  0.64625889  0.71604608    -0.02900
C1970       C  0.94826490  0.64581620  0.72401437    -0.18000
H1971       H  0.00374757  0.65599439  0.77553458     0.11000
H1972       H  0.97836171  0.63309333  0.76003662     0.11100
H1973       H  0.04084697  0.69219766  0.74076433     0.10800
H1974       H  0.06585231  0.71483023  0.75629573     0.11900
H1975       H  0.96748004  0.63615149  0.74217952     0.12000
H1976       H  0.01501384  0.66850391  0.72796155     0.13900
H1977       H  0.00254902  0.65965071  0.70951389     0.10400
H1978       H  0.97414735  0.66066994  0.69568305     0.12500
H1979       H  0.91312934  0.64443085  0.71806656     0.09100
H1980       H  0.94109921  0.64330092  0.73191721     0.11800
C1981       C  0.44465937  0.74233284  0.76146049    -0.02800
C1982       C  0.46552123  0.73686899  0.76193353    -0.05400
C1983       C  0.49197094  0.75734404  0.76257793    -0.20400
C1984       C  0.49838041  0.78384314  0.76290473     0.25300
C1985       C  0.47760347  0.78945350  0.76223500    -0.18000
C1986       C  0.45110172  0.76894333  0.76151874    -0.08000
C1987       C  0.52693047  0.80484927  0.76377258    -0.18300
C1988       C  0.53527818  0.82923196  0.76758788    -0.23100
C1989       C  0.56377462  0.85004481  0.76880447     0.27300
C1990       C  0.57024184  0.87656278  0.76932929    -0.19800
C1991       C  0.59646475  0.89673597  0.77095025    -0.09500
C1992       C  0.61685524  0.89087495  0.77224970    -0.10000
C1993       C  0.61060426  0.86443854  0.77157200    -0.02900
C1994       C  0.58430958  0.84417254  0.76994713    -0.18000
H1995       H  0.46158025  0.71677365  0.76189449     0.11000
H1996       H  0.50750593  0.75239262  0.76297980     0.11100
H1997       H  0.48162552  0.80957518  0.76209113     0.10800
H1998       H  0.43575141  0.77408630  0.76098095     0.11900
H1999       H  0.54150041  0.79959203  0.76142882     0.12000
H2000       H  0.52072312  0.83448729  0.76993929     0.13900
H2001       H  0.55488083  0.88168759  0.76857553     0.10400
H2002       H  0.60074305  0.91693057  0.77153879     0.12500
H2003       H  0.62600575  0.85944433  0.77251921     0.09100
H2004       H  0.58014763  0.82399511  0.76989706     0.11800
C2005       C  0.09402465  0.71271892  0.77649446    -0.02800
C2006       C  0.11227454  0.72840794  0.76884139    -0.05400
C2007       C  0.13414199  0.72550881  0.76663896    -0.20400
C2008       C  0.13777940  0.70647787  0.77189059     0.25300
C2009       C  0.11905320  0.69042689  0.77944351    -0.18000
C2010       C  0.09740662  0.69357981  0.78170539    -0.08000
C2011       C  0.16171761  0.70449988  0.76962662    -0.18300
C2012       C  0.16213046  0.68187433  0.77084242    -0.23100
C2013       C  0.18544145  0.67893783  0.76850431     0.27300
C2014       C  0.18094209  0.65363500  0.76624917    -0.19800
C2015       C  0.20209948  0.64944330  0.76442629    -0.09500
C2016       C  0.22848938  0.67044632  0.76496644    -0.10000
C2017       C  0.23304566  0.69592960  0.76717079    -0.02900
C2018       C  0.21176416  0.70015480  0.76892986    -0.18000
H2019       H  0.11003346  0.74348386  0.76485621     0.11000
H2020       H  0.14834096  0.73825325  0.76085498     0.11100
H2021       H  0.12152145  0.67607329  0.78387958     0.10800
H2022       H  0.08357919  0.68157688  0.78773316     0.11900
H2023       H  0.17888670  0.72175574  0.76638062     0.12000
H2024       H  0.14404044  0.66408736  0.77313457     0.13900
H2025       H  0.16088277  0.63693837  0.76590284     0.10400
H2026       H  0.19756566  0.62958042  0.76268334     0.12500
H2027       H  0.25302571  0.71261521  0.76772217     0.09100
H2028       H  0.21604732  0.71985344  0.77089276     0.11800
C2029       C  0.25365323  0.35232954  0.77650666    -0.02800
C2030       C  0.24504202  0.35538511  0.76667003    -0.05400
C2031       C  0.25003665  0.38025748  0.76336820    -0.20400
C2032       C  0.26398524  0.40246694  0.76979224     0.25300
C2033       C  0.27281954  0.39931782  0.77962704    -0.18000
C2034       C  0.26765984  0.37445101  0.78293628    -0.08000
C2035       C  0.26769677  0.42832485  0.76632472    -0.18300
C2036       C  0.28863370  0.45148826  0.76933481    -0.23100
C2037       C  0.29234994  0.47778941  0.76655445     0.27300
C2038       C  0.31793562  0.49990292  0.76727322    -0.19800
C2039       C  0.32230106  0.52528952  0.76545212    -0.09500
C2040       C  0.30107955  0.52929219  0.76297307    -0.10000
C2041       C  0.27538962  0.50711622  0.76218986    -0.02900
C2042       C  0.27104029  0.48161326  0.76395078    -0.18000
H2043       H  0.23386337  0.33838570  0.76170277     0.11000
H2044       H  0.24283242  0.38214985  0.75581170     0.11100
H2045       H  0.28292640  0.41581272  0.78491694     0.10800
H2046       H  0.27413825  0.37226741  0.79060562     0.11900
H2047       H  0.25321320  0.42811990  0.76092850     0.12000
H2048       H  0.30426407  0.45130226  0.77390441     0.13900
H2049       H  0.33465527  0.49756463  0.76936504     0.10400
H2050       H  0.34231405  0.54176911  0.76624729     0.12500
H2051       H  0.25856531  0.50940130  0.76029009     0.09100
H2052       H  0.25091249  0.46514305  0.76357584     0.11800
C2053       C  0.65295210  0.76974776  0.83992120    -0.02800
C2054       C  0.67643373  0.78309667  0.83413941    -0.05400
C2055       C  0.67990892  0.80268575  0.82696477    -0.20400
C2056       C  0.65996255  0.80914491  0.82537642     0.25300
C2057       C  0.63699891  0.79658414  0.83154526    -0.18000
C2058       C  0.63356073  0.77709018  0.83869144    -0.08000
C2059       C  0.66405046  0.82932517  0.81737402    -0.18300
C2060       C  0.64403710  0.83084117  0.81268949    -0.23100
C2061       C  0.64790688  0.85102008  0.80468217     0.27300
C2062       C  0.62657263  0.85495998  0.80228383    -0.19800
C2063       C  0.62956971  0.87440287  0.79512179    -0.09500
C2064       C  0.65386756  0.88991738  0.79003792    -0.10000
C2065       C  0.67501835  0.88566134  0.79226573    -0.02900
C2066       C  0.67209884  0.86637671  0.79942286    -0.18000
H2067       H  0.69151958  0.77761706  0.83478518     0.11000
H2068       H  0.69794700  0.81229267  0.82240122     0.11100
H2069       H  0.62163917  0.80169274  0.83092477     0.10800
H2070       H  0.61539197  0.76734317  0.84316943     0.11900
H2071       H  0.68443265  0.84297481  0.81521285     0.12000
H2072       H  0.62369816  0.81686132  0.81484851     0.13900
H2073       H  0.60766233  0.84337905  0.80616467     0.10400
H2074       H  0.61315760  0.87771307  0.79375534     0.12500
H2075       H  0.69399377  0.89741359  0.78845283     0.09100
H2076       H  0.68889910  0.86368961  0.80070435     0.11800
C2077       C  0.65153473  0.70998690  0.86822002    -0.02800
C2078       C  0.67452159  0.70861681  0.87023367    -0.05400
C2079       C  0.67621503  0.69574679  0.87923645    -0.20400
C2080       C  0.65474084  0.68363576  0.88617136     0.25300
C2081       C  0.63233027  0.68600641  0.88434207    -0.18000
C2082       C  0.63080604  0.69905218  0.87552432    -0.08000
C2083       C  0.65557415  0.66899672  0.89548706    -0.18300
C2084       C  0.63432509  0.64556969  0.89811300    -0.23100
C2085       C  0.63026459  0.63271644  0.90847446     0.27300
C2086       C  0.61075212  0.60590814  0.90947986    -0.19800
C2087       C  0.60150932  0.59467203  0.91930482    -0.09500
C2088       C  0.61141549  0.61018810  0.92829318    -0.10000
C2089       C  0.63235781  0.63639624  0.92734617    -0.02900
C2090       C  0.64181233  0.64756250  0.91753914    -0.18000
H2091       H  0.69060146  0.71633764  0.86470058     0.11000
H2092       H  0.69381781  0.69438108  0.88058707     0.11100
H2093       H  0.61585711  0.67762516  0.88973527     0.10800
H2094       H  0.61297187  0.70009641  0.87429811     0.11900
H2095       H  0.67323950  0.67799502  0.90034660     0.12000
H2096       H  0.61796760  0.63613764  0.89259332     0.13900
H2097       H  0.60141278  0.59409064  0.90262132     0.10400
H2098       H  0.58503480  0.57457442  0.91979202     0.12500
H2099       H  0.64017895  0.64878129  0.93417955     0.09100
H2100       H  0.65653529  0.66835582  0.91709825     0.11800
C2101       C  0.02953897  0.32555868  0.86685367    -0.02800
C2102       C  0.03869291  0.32131024  0.87636184    -0.05400
C2103       C  0.02659431  0.32157566  0.88569327    -0.20400
C2104       C  0.00544390  0.32660121  0.88571824     0.25300
C2105       C  0.99521121  0.32917590  0.87611362    -0.18000
C2106       C  0.00732350  0.32887779  0.86679308    -0.08000
C2107       C  0.99623117  0.33115114  0.89588169    -0.18300
C2108       C  0.98560767  0.34683870  0.89693039    -0.23100
C2109       C  0.98264916  0.35704624  0.90713532     0.27300
C2110       C  0.98321034  0.38129546  0.90730707    -0.19800
C2111       C  0.98449583  0.39369931  0.91673970    -0.09500
C2112       C  0.98462092  0.38182513  0.92620983    -0.10000
C2113       C  0.98252563  0.35687962  0.92609166    -0.02900
C2114       C  0.98130876  0.34445403  0.91665959    -0.18000
H2115       H  0.05638553  0.31975386  0.87667625     0.11000
H2116       H  0.03488769  0.31952018  0.89296523     0.11100
H2117       H  0.97842175  0.33221168  0.87575642     0.10800
H2118       H  0.00003541  0.33237445  0.85953124     0.11900
H2119       H  0.00177416  0.32431847  0.90279185     0.12000
H2120       H  0.98221408  0.35549412  0.89003022     0.13900
H2121       H  0.98439682  0.39152399  0.90010638     0.10400
H2122       H  0.98757291  0.41348214  0.91656492     0.12500
H2123       H  0.98303929  0.34754593  0.93332037     0.09100
H2124       H  0.98013083  0.32545574  0.91689142     0.11800
C2125       C  0.21836593  0.32468902  0.79567313    -0.02800
C2126       C  0.20406590  0.33543641  0.79098635    -0.05400
C2127       C  0.18657851  0.33991701  0.79684307    -0.20400
C2128       C  0.18249371  0.33311797  0.80742989     0.25300
C2129       C  0.19782927  0.32367400  0.81224732    -0.18000
C2130       C  0.21550894  0.31947308  0.80641684    -0.08000
C2131       C  0.16165986  0.33544373  0.81312879    -0.18300
C2132       C  0.14805306  0.31947624  0.82114655    -0.23100
C2133       C  0.12683076  0.32102371  0.82686503     0.27300
C2134       C  0.12218747  0.31274921  0.83728511    -0.19800
C2135       C  0.10355169  0.31527967  0.84317609    -0.09500
C2136       C  0.08854129  0.32542757  0.83869501    -0.10000
C2137       C  0.09229013  0.33256265  0.82811047    -0.02900
C2138       C  0.11122362  0.33039435  0.82223830    -0.18000
H2139       H  0.20509987  0.33896852  0.78268849     0.11000
H2140       H  0.17518710  0.34743721  0.79297337     0.11100
H2141       H  0.19603627  0.31922424  0.82048396     0.10800
H2142       H  0.22643766  0.31138603  0.81026326     0.11900
H2143       H  0.15673434  0.34996771  0.81033154     0.12000
H2144       H  0.15295449  0.30487859  0.82386527     0.13900
H2145       H  0.13390020  0.30540400  0.84102251     0.10400
H2146       H  0.10223354  0.31081101  0.85137313     0.12500
H2147       H  0.08094388  0.34040329  0.82442644     0.09100
H2148       H  0.11360775  0.33613312  0.81412571     0.11800
C2149       C  0.21396354  0.88349297  0.84073111    -0.02800
C2150       C  0.18864712  0.86597754  0.84470908    -0.05400
C2151       C  0.16953097  0.84556207  0.83849127    -0.20400
C2152       C  0.17535375  0.84210141  0.82820468     0.25300
C2153       C  0.20025489  0.86051655  0.82407587    -0.18000
C2154       C  0.21928870  0.88086159  0.83028412    -0.08000
C2155       C  0.15479867  0.81935881  0.82205499    -0.18300
C2156       C  0.15989223  0.80949481  0.81344872    -0.23100
C2157       C  0.13869089  0.78734061  0.80729180     0.27300
C2158       C  0.14222468  0.78603971  0.79654721    -0.19800
C2159       C  0.12163656  0.76701134  0.79035989    -0.09500
C2160       C  0.09734008  0.74848505  0.79484816    -0.10000
C2161       C  0.09442684  0.74883305  0.80568459    -0.02900
C2162       C  0.11485347  0.76793796  0.81185201    -0.18000
H2163       H  0.18402071  0.86720612  0.85276629     0.11000
H2164       H  0.15040400  0.83189931  0.84183779     0.11100
H2165       H  0.20528462  0.85937269  0.81609289     0.10800
H2166       H  0.23853469  0.89428802  0.82695815     0.11900
H2167       H  0.13454715  0.81034935  0.82484331     0.12000
H2168       H  0.17997755  0.81846675  0.81048778     0.13900
H2169       H  0.16045363  0.80060841  0.79284745     0.10400
H2170       H  0.12427278  0.76793570  0.78203179     0.12500
H2171       H  0.07598396  0.73465325  0.80937959     0.09100
H2172       H  0.11174741  0.76757300  0.82014900     0.11800
C2173       C  0.37723989  0.97963634  0.92995541    -0.02800
C2174       C  0.37434556  0.00158340  0.92776277    -0.05400
C2175       C  0.35979644  0.00157865  0.91898287    -0.20400
C2176       C  0.34732335  0.97938210  0.91243336     0.25300
C2177       C  0.35089309  0.95781472  0.91451429    -0.18000
C2178       C  0.36560894  0.95796594  0.92313791    -0.08000
C2179       C  0.33093655  0.97882247  0.90336775    -0.18300
C2180       C  0.30876418  0.95627523  0.90055892    -0.23100
C2181       C  0.29282613  0.95205836  0.89087718     0.27300
C2182       C  0.26965630  0.92736286  0.88959425    -0.19800
C2183       C  0.25659226  0.91989116  0.87999530    -0.09500
C2184       C  0.26595285  0.93717329  0.87146916    -0.10000
C2185       C  0.28815082  0.96254264  0.87286200    -0.02900
C2186       C  0.30143379  0.97004088  0.88248862    -0.18000
H2187       H  0.38254408  0.01831547  0.93299244     0.11000
H2188       H  0.35751858  0.01853498  0.91749983     0.11100
H2189       H  0.34233362  0.94073448  0.90945252     0.10800
H2190       H  0.36759799  0.94082090  0.92457508     0.11900
H2191       H  0.33715694  0.99705334  0.89913109     0.12000
H2192       H  0.30223045  0.93911873  0.90557117     0.13900
H2193       H  0.26262828  0.91297953  0.89585362     0.10400
H2194       H  0.24057006  0.89972925  0.87900377     0.12500
H2195       H  0.29637455  0.97581282  0.86627764     0.09100
H2196       H  0.31931094  0.98914148  0.88305641     0.11800
C2197       C  0.07741526  0.96362237  0.86140543    -0.02800
C2198       C  0.07133534  0.94088296  0.85565906    -0.05400
C2199       C  0.09037098  0.93339684  0.85419804    -0.20400
C2200       C  0.11568393  0.94796749  0.85869073     0.25300
C2201       C  0.12178860  0.97058637  0.86455184    -0.18000
C2202       C  0.10289884  0.97845769  0.86581157    -0.08000
C2203       C  0.13561128  0.93980761  0.85669183    -0.18300
C2204       C  0.15430345  0.94294019  0.86367176    -0.23100
C2205       C  0.17418541  0.93475128  0.86157281     0.27300
C2206       C  0.18359848  0.92586587  0.86981579    -0.19800
C2207       C  0.20277803  0.91860931  0.86809329    -0.09500
C2208       C  0.21350891  0.92078915  0.85813146    -0.10000
C2209       C  0.20416207  0.92986559  0.84989967    -0.02900
C2210       C  0.18465823  0.93664445  0.85157278    -0.18000
H2211       H  0.05199463  0.92913271  0.85208415     0.11000
H2212       H  0.08524075  0.91601699  0.84958302     0.11100
H2213       H  0.14132114  0.98253980  0.86794906     0.10800
H2214       H  0.10816158  0.99602747  0.87030696     0.11900
H2215       H  0.13390842  0.92962797  0.84943057     0.12000
H2216       H  0.15429355  0.95059295  0.87135458     0.13900
H2217       H  0.17584403  0.92423501  0.87759537     0.10400
H2218       H  0.20885778  0.91106074  0.87453939     0.12500
H2219       H  0.21233468  0.93211863  0.84217230     0.09100
H2220       H  0.17835900  0.94405644  0.84508981     0.11800
C2221       C  0.02082907  0.11835881  0.86629889    -0.02800
C2222       C  0.04760365  0.13869349  0.86596045    -0.05400
C2223       C  0.05437312  0.16525559  0.86535218    -0.20400
C2224       C  0.03461768  0.17222157  0.86493173     0.25300
C2225       C  0.00787636  0.15200208  0.86549105    -0.18000
C2226       C  0.00110782  0.12547944  0.86617009    -0.08000
C2227       C  0.04256564  0.20068819  0.86419430    -0.18300
C2228       C  0.02695331  0.20910352  0.85988765    -0.23100
C2229       C  0.03469636  0.23744221  0.85875265     0.27300
C2230       C  0.02117203  0.24414649  0.85136894    -0.19800
C2231       C  0.02803422  0.27047856  0.84984453    -0.09500
C2232       C  0.04831544  0.29061464  0.85575229    -0.10000
C2233       C  0.06127060  0.28404101  0.86339853    -0.02900
C2234       C  0.05461923  0.25770584  0.86488073    -0.18000
H2235       H  0.06347015  0.13422793  0.86611756     0.11000
H2236       H  0.07514742  0.18041973  0.86506699     0.11100
H2237       H  0.99207211  0.15655566  0.86557269     0.10800
H2238       H  0.98029608  0.11061619  0.86657492     0.11900
H2239       H  0.06246351  0.21503814  0.86675299     0.12000
H2240       H  0.00808886  0.19466342  0.85648095     0.13900
H2241       H  0.00557793  0.22900573  0.84662198     0.10400
H2242       H  0.01783351  0.27529552  0.84392890     0.12500
H2243       H  0.07711391  0.29941480  0.86797931     0.09100
H2244       H  0.06504664  0.25339789  0.87084849     0.11800
C2245       C  0.86634241  0.90678813  0.86187550    -0.02800
C2246       C  0.84668549  0.91327399  0.85964515    -0.05400
C2247       C  0.81984881  0.89365131  0.85923304    -0.20400
C2248       C  0.81184700  0.86698452  0.86097307     0.25300
C2249       C  0.83149392  0.86044846  0.86328291    -0.18000
C2250       C  0.85838709  0.88010714  0.86368764    -0.08000
C2251       C  0.78286586  0.84692537  0.86060643    -0.18300
C2252       C  0.77303498  0.82086468  0.85898104    -0.23100
C2253       C  0.74406497  0.80103294  0.85808546     0.27300
C2254       C  0.73635776  0.77730186  0.85278993    -0.19800
C2255       C  0.70949665  0.75830284  0.85154702    -0.09500
C2256       C  0.68969215  0.76236876  0.85571512    -0.10000
C2257       C  0.69714193  0.78577641  0.86116399    -0.02900
C2258       C  0.72409246  0.80490959  0.86240680    -0.18000
H2259       H  0.85197295  0.93352568  0.85814599     0.11000
H2260       H  0.80522371  0.89935839  0.85749050     0.11100
H2261       H  0.82623811  0.84031027  0.86500187     0.10800
H2262       H  0.87287721  0.87437804  0.86560845     0.11900
H2263       H  0.76919802  0.85432019  0.86112189     0.12000
H2264       H  0.78671165  0.81379358  0.85756699     0.13900
H2265       H  0.75118114  0.77365435  0.84941184     0.10400
H2266       H  0.70403982  0.74054735  0.84716379     0.12500
H2267       H  0.68206007  0.78925850  0.86436734     0.09100
H2268       H  0.72911599  0.82254093  0.86678931     0.11800
loop_ 
_geom_bond_atom_site_label_1 
_geom_bond_atom_site_label_2 
_geom_bond_distance 
_geom_bond_site_symmetry_2 
_ccdc_geom_bond_type 
N1            N2   1.322   1_655  A
N1            C5   1.346       .  A
N1           Cu9   2.083       .  S
N2            C3   1.347       .  A
N2           Cu8   2.092       .  S
C3            C4   1.391       .  A
C3            H6   1.081       .  S
C4            C5   1.391   1_455  A
C4         C2221   1.495       .  S
C5            H7   1.082       .  S
Cu8          N11   2.093   1_545  S
Cu9          N19   2.084   1_545  S
Cu10         N12   2.076   1_655  S
Cu10         N18   2.076       .  S
N11          N12   1.323       .  A
N11          C15   1.349       .  A
N12          C13   1.345       .  A
C13          C14   1.386       .  A
C13          H16   1.082       .  S
C14          C15   1.390       .  A
C14        C2197   1.487       .  S
C15          H17   1.082   1_565  S
N18          N19   1.321       .  A
N18          C22   1.346       .  A
N19          C20   1.346       .  A
C20          C21   1.390       .  A
C20          H23   1.082       .  S
C21          C22   1.389       .  A
C21        C2245   1.490       .  S
C22          H24   1.081       .  S
N25          C29   1.364       .  A
N25          C26   1.365       .  A
N25        C2208   1.448       .  S
C26          C27   1.380       .  A
C26        C2184   1.480       .  S
C27          C28   1.369       .  A
C27          H30   1.083       .  S
C28          C29   1.383       .  A
C28          H31   1.083       .  S
C29        C2149   1.489       .  S
N32          C36   1.360       .  A
N32          C33   1.358       .  A
N32        C2232   1.438       .  S
C33          C34   1.382       .  A
C33        C2101   1.478       .  S
C34          C35   1.373       .  A
C34          H37   1.082       .  S
C35          C36   1.384       .  A
C35          H38   1.082       .  S
C36        C2136   1.485       .  S
N39          C43   1.362       .  A
N39          C40   1.363       .  A
N39        C2256   1.441       .  S
C40          C41   1.385       .  A
C40        C2077   1.487       .  S
C41          C42   1.368       .  A
C41          H44   1.082       .  S
C42          C43   1.381       .  A
C42          H45   1.082       .  S
C43        C2053   1.484       .  S
N46          N47   1.322       .  A
N46          C50   1.347       .  A
N46         Cu54   2.084       .  S
N47          C48   1.344       .  A
N47         Cu53   2.077       .  S
C48          C49   1.389       .  A
C48          H51   1.081       .  S
C49          C50   1.390       .  A
C49        C2016   1.490       .  S
C50          H52   1.081       .  S
Cu53         N56   2.076       .  S
Cu54         N64   2.083       .  S
Cu55         N57   2.076       .  S
Cu55         N63   2.077       .  S
N56          N57   1.321       .  A
N56          C60   1.347       .  A
N57          C58   1.343       .  A
C58          C59   1.388       .  A
C58          H61   1.081       .  S
C59          C60   1.389       .  A
C59        C2040   1.487       .  S
C60          H62   1.081       .  S
N63          N64   1.321       .  A
N63          C67   1.345       .  A
N64          C65   1.346       .  A
C65          C66   1.390       .  A
C65          H68   1.081       .  S
C66          C67   1.390       .  A
C66        C1981   1.493       .  S
C67          H69   1.081       .  S
N70          C74   1.360       .  A
N70          C71   1.358       .  A
N70        C2005   1.436       .  S
C71          C72   1.383       .  A
C71        C1957   1.483       .  S
C72          C73   1.373       .  A
C72          H75   1.083       .  S
C73          C74   1.383       .  A
C73          H76   1.082       .  S
C74        C2160   1.487       .  S
N77          C81   1.360       .  A
N77          C78   1.360       .  A
N77        C2029   1.436       .  S
C78          C79   1.386       .  A
C78        C1933   1.491       .  S
C79          C80   1.373       .  A
C79          H82   1.082       .  S
C80          C81   1.382       .  A
C80          H83   1.082       .  S
C81        C2125   1.487       .  S
N84          C88   1.363       .  A
N84          C85   1.362       .  A
N84        C1992   1.445       .  S
C85          C86   1.382       .  A
C85        C1909   1.484       .  S
C86          C87   1.371       .  A
C86          H89   1.082       .  S
C87          C88   1.382       .  A
C87          H90   1.082       .  S
C88        C2064   1.485       .  S
N91          N92   1.321   1_455  A
N91          C95   1.346       .  A
N91         Cu99   2.081       .  S
N92          C93   1.348       .  A
N92         Cu98   2.087       .  S
C93          C94   1.391       .  A
C93          H96   1.081       .  S
C94          C95   1.391   1_655  A
C94        C1896   1.495       .  S
C95          H97   1.081       .  S
Cu98        N101   2.086   1_565  S
Cu99        N109   2.080   1_565  S
Cu100       N102   2.085   1_455  S
Cu100       N108   2.086       .  S
N101        N102   1.322       .  A
N101        C105   1.345       .  A
N102        C103   1.347       .  A
C103        C104   1.390       .  A
C103        H106   1.081       .  S
C104        C105   1.390       .  A
C104       C1837   1.492       .  S
C105        H107   1.081   1_545  S
N108        N109   1.323       .  A
N108        C112   1.349       .  A
N109        C110   1.344       .  A
C110        C111   1.386       .  A
C110        H113   1.082       .  S
C111        C112   1.388       .  A
C111       C1861   1.485       .  S
C112        H114   1.082       .  S
N115        C119   1.362       .  A
N115        C116   1.362       .  A
N115       C1848   1.443       .  S
C116        C117   1.382       .  A
C116       C1813   1.481       .  S
C117        C118   1.371       .  A
C117        H120   1.083       .  S
C118        C119   1.383       .  A
C118        H121   1.083       .  S
C119       C1800   1.484       .  S
N122        C126   1.363       .  A
N122        C123   1.364       .  A
N122       C1872   1.444       .  S
C123        C124   1.384       .  A
C123       C1776   1.488       .  S
C124        C125   1.370       .  A
C124        H127   1.082       .  S
C125        C126   1.381       .  A
C125        H128   1.083       .  S
C126       C1752   1.485       .  S
N129        C133   1.364       .  A
N129        C130   1.364       .  A
N129       C1885   1.444       .  S
C130        C131   1.385       .  A
C130       C1693   1.489       .  S
C131        C132   1.368       .  A
C131        H134   1.083       .  S
C132        C133   1.381       .  A
C132        H135   1.082       .  S
C133       C1728   1.486       .  S
N136        N137   1.322       .  A
N136        C140   1.347       .  A
N136       Cu144   2.085       .  S
N137        C138   1.346       .  A
N137       Cu143   2.086       .  S
C138        C139   1.390       .  A
C138        H141   1.081       .  S
C139        C140   1.391       .  A
C139       C1621   1.494       .  S
C140        H142   1.082       .  S
Cu143       N146   2.086       .  S
Cu144       N154   2.084       .  S
Cu145       N147   2.083       .  S
Cu145       N153   2.084       .  S
N146        N147   1.321       .  A
N146        C150   1.349       .  A
N147        C148   1.344       .  A
C148        C149   1.391       .  A
C148        H151   1.080       .  S
C149        C150   1.391       .  A
C149       C1645   1.495       .  S
C150        H152   1.082       .  S
N153        N154   1.321       .  A
N153        C157   1.346       .  A
N154        C155   1.348       .  A
C155        C156   1.390       .  A
C155        H158   1.081       .  S
C156        C157   1.390       .  A
C156       C1669   1.493       .  S
C157        H159   1.081       .  S
N160        C164   1.360       .  A
N160        C161   1.361       .  A
N160       C1680   1.444       .  S
C161        C162   1.385       .  A
C161       C1597   1.482       .  S
C162        C163   1.371       .  A
C162        H165   1.083       .  S
C163        C164   1.381       .  A
C163        H166   1.083       .  S
C164       C1741   1.479       .  S
N167        C171   1.365       .  A
N167        C168   1.364       .  A
N167       C1632   1.445       .  S
C168        C169   1.383       .  A
C168       C1573   1.489       .  S
C169        C170   1.370       .  A
C169        H172   1.083       .  S
C170        C171   1.381       .  A
C170        H173   1.082       .  S
C171       C1789   1.486       .  S
N174        C178   1.360       .  A
N174        C175   1.360       .  A
N174       C1656   1.438       .  S
C175        C176   1.383       .  A
C175       C1549   1.484       .  S
C176        C177   1.372       .  A
C176        H179   1.083       .  S
C177        C178   1.382       .  A
C177        H180   1.082       .  S
C178       C1717   1.485       .  S
N181        N182   1.322       .  A
N181        C185   1.346       .  A
N181       Cu189   2.085       .  S
N182        C183   1.344       .  A
N182       Cu188   2.077       .  S
C183        C184   1.389       .  A
C183        H186   1.081       .  S
C184        C185   1.391       .  A
C184       C1501   1.491       .  S
C185        H187   1.081       .  S
Cu188       N191   2.079       .  S
Cu189       N199   2.086       .  S
Cu190       N192   2.077       .  S
Cu190       N198   2.076       .  S
N191        N192   1.321       .  A
N191        C195   1.346       .  A
N192        C193   1.345       .  A
C193        C194   1.389       .  A
C193        H196   1.082       .  S
C194        C195   1.389       .  A
C194       C1525   1.490       .  S
C195        H197   1.081       .  S
N198        N199   1.321       .  A
N198        C202   1.345       .  A
N199        C200   1.347       .  A
C200        C201   1.390       .  A
C200        H203   1.081       .  S
C201        C202   1.389       .  A
C201       C1488   1.490       .  S
C202        H204   1.081       .  S
N205        C209   1.360   1_565  A
N205        C206   1.358   1_565  A
N205       C1477   1.439       .  S
C206        C207   1.381       .  A
C206       C1824   1.478       .  S
C207        C208   1.373       .  A
C207        H210   1.083       .  S
C208        C209   1.384       .  A
C208        H211   1.082       .  S
C209       C1453   1.486       .  S
N212        C216   1.363       .  A
N212        C213   1.363       .  A
N212       C1536   1.443       .  S
C213        C214   1.383       .  A
C213       C1765   1.488       .  S
C214        C215   1.372       .  A
C214        H217   1.082       .  S
C215        C216   1.382       .  A
C215        H218   1.082       .  S
C216       C1440   1.485       .  S
N219        C223   1.359   1_455  A
N219        C220   1.359   1_455  A
N219       C1512   1.437       .  S
C220        C221   1.382       .  A
C220       C1704   1.483   1_655  S
C221        C222   1.372       .  A
C221        H224   1.082       .  S
C222        C223   1.383       .  A
C222        H225   1.082       .  S
C223       C1416   1.483   1_655  S
N226        N227   1.323       .  A
N226        C230   1.345       .  A
N226       Cu234   2.088       .  S
N227        C228   1.349       .  A
N227       Cu233   2.090       .  S
C228        C229   1.391       .  A
C228        H231   1.082       .  S
C229        C230   1.389       .  A
C229       C1392   1.494       .  S
C230        H232   1.081       .  S
Cu233       N236   2.089       .  S
Cu234       N244   2.087       .  S
Cu235       N237   2.073       .  S
Cu235       N243   2.073       .  S
N236        N237   1.321       .  A
N236        C240   1.347       .  A
N237        C238   1.344       .  A
C238        C239   1.388       .  A
C238        H241   1.081       .  S
C239        C240   1.391       .  A
C239       C1344   1.492       .  S
C240        H242   1.082       .  S
N243        N244   1.322       .  A
N243        C247   1.343       .  A
N244        C245   1.349       .  A
C245        C246   1.389       .  A
C245        H248   1.082       .  S
C246        C247   1.385       .  A
C246       C1368   1.484       .  S
C247        H249   1.082       .  S
N250        C254   1.361       .  A
N250        C251   1.360       .  A
N250       C1333   1.440       .  S
C251        C252   1.380   1_655  A
C251       C2112   1.479       .  S
C252        C253   1.371       .  A
C252        H255   1.083       .  S
C253        C254   1.385   1_455  A
C253        H256   1.082       .  S
C254       C1405   1.487       .  S
N257        C261   1.362       .  A
N257        C258   1.361       .  A
N257       C1381   1.444       .  S
C258        C259   1.382       .  A
C258       C2088   1.482       .  S
C259        C260   1.372       .  A
C259        H262   1.083       .  S
C260        C261   1.384       .  A
C260        H263   1.083       .  S
C261       C1429   1.484       .  S
N264        C268   1.364       .  A
N264        C265   1.365       .  A
N264       C1357   1.444   1_565  S
C265        C266   1.384       .  A
C265       C2173   1.490       .  S
C266        C267   1.370       .  A
C266        H269   1.082       .  S
C267        C268   1.380       .  A
C267        H270   1.083       .  S
C268       C1464   1.485       .  S
N271        N272   1.322       .  A
N271        C275   1.345       .  A
N271       Cu279   2.079       .  S
N272        C273   1.346       .  A
N272       Cu278   2.076       .  S
C273        C274   1.386       .  A
C273        H276   1.082       .  S
C274        C275   1.386       .  A
C274       C1309   1.482       .  S
C275        H277   1.082       .  S
Cu278       N281   2.078   1_565  S
Cu279       N289   2.080   1_655  S
Cu280       N282   2.105   1_455  S
Cu280       N288   2.105       .  S
N281        N282   1.323       .  A
N281        C285   1.346       .  A
N282        C283   1.348       .  A
C283        C284   1.393       .  A
C283        H286   1.081   1_655  S
C284        C285   1.389       .  A
C284       C1261   1.496       .  S
C285        H287   1.081       .  S
N288        N289   1.322   1_545  A
N288        C292   1.351       .  A
N289        C290   1.345       .  A
C290        C291   1.389   1_565  A
C290        H293   1.082       .  S
C291        C292   1.393       .  A
C291       C1285   1.496       .  S
C292        H294   1.081       .  S
N295        C299   1.363       .  A
N295        C296   1.361       .  A
N295       C1272   1.447       .  S
C296        C297   1.382       .  A
C296       C1248   1.480       .  S
C297        C298   1.372       .  A
C297        H300   1.083       .  S
C298        C299   1.383       .  A
C298        H301   1.083       .  S
C299       C1224   1.483       .  S
N302        C306   1.363       .  A
N302        C303   1.360       .  A
N302       C1296   1.444       .  S
C303        C304   1.382       .  A
C303       C1176   1.482       .  S
C304        C305   1.372       .  A
C304        H307   1.083       .  S
C305        C306   1.384       .  A
C305        H308   1.083       .  S
C306       C1200   1.486       .  S
N309        C313   1.363       .  A
N309        C310   1.362       .  A
N309       C1320   1.444       .  S
C310        C311   1.384       .  A
C310       C1152   1.486       .  S
C311        C312   1.369       .  A
C311        H314   1.082       .  S
C312        C313   1.381       .  A
C312        H315   1.082       .  S
C313       C1117   1.483       .  S
N316        N317   1.323       .  A
N316        C320   1.345       .  A
N316       Cu324   2.073       .  S
N317        C318   1.346       .  A
N317       Cu323   2.088       .  S
C318        C319   1.388       .  A
C318        H321   1.081       .  S
C319        C320   1.385       .  A
C319       C1045   1.484       .  S
C320        H322   1.082       .  S
Cu323       N326   2.087       .  S
Cu324       N334   2.073       .  S
Cu325       N327   2.093       .  S
Cu325       N333   2.093       .  S
N326        N327   1.323       .  A
N326        C330   1.348       .  A
N327        C328   1.348       .  A
C328        C329   1.389       .  A
C328        H331   1.082       .  S
C329        C330   1.388       .  A
C329       C1104   1.489       .  S
C330        H332   1.082       .  S
N333        N334   1.322       .  A
N333        C337   1.346       .  A
N334        C335   1.346       .  A
C335        C336   1.389       .  A
C335        H338   1.081       .  S
C336        C337   1.391       .  A
C336       C1080   1.492       .  S
C337        H339   1.081       .  S
N340        C344   1.364       .  A
N340        C341   1.362       .  A
N340       C1093   1.448       .  S
C341        C342   1.379       .  A
C341       C1944   1.476       .  S
C342        C343   1.370       .  A
C342        H345   1.083       .  S
C343        C344   1.385       .  A
C343        H346   1.082       .  S
C344       C1189   1.489       .  S
N347        C351   1.358       .  A
N347        C348   1.361       .  A
N347       C1069   1.437       .  S
C348        C349   1.387       .  A
C348       C1920   1.490       .  S
C349        C350   1.371       .  A
C349        H352   1.082       .  S
C350        C351   1.380       .  A
C350        H353   1.082       .  S
C351       C1213   1.478       .  S
N354        C358   1.361       .  A
N354        C355   1.360       .  A
N354       C1056   1.439       .  S
C355        C356   1.382       .  A
C355       C1968   1.480       .  S
C356        C357   1.369       .  A
C356        H359   1.083       .  S
C357        C358   1.383       .  A
C357        H360   1.083       .  S
C358       C1128   1.483       .  S
N361        N362   1.321       .  A
N361        C365   1.349       .  A
N361       Cu369   2.093   1_565  S
N362        C363   1.345       .  A
N362       Cu368   2.078   1_455  S
C363        C364   1.389       .  A
C363        H366   1.082   1_455  S
C364        C365   1.392       .  A
C364        C973   1.493       .  S
C365        H367   1.081       .  S
Cu368       N371   2.078       .  S
Cu369       N379   2.094       .  S
Cu370       N372   2.089   1_455  S
Cu370       N378   2.090       .  S
N371        N372   1.322   1_565  A
N371        C375   1.344       .  A
N372        C373   1.348       .  A
C373        C374   1.390   1_545  A
C373        H376   1.082       .  S
C374        C375   1.388       .  A
C374       C1021   1.490       .  S
C375        H377   1.081       .  S
N378        N379   1.323       .  A
N378        C382   1.348       .  A
N379        C380   1.347       .  A
C380        C381   1.392       .  A
C380        H383   1.081       .  S
C381        C382   1.390       .  A
C381       C1008   1.497       .  S
C382        H384   1.080       .  S
N385        C389   1.360       .  A
N385        C386   1.364       .  A
N385        C984   1.444       .  S
C386        C387   1.387       .  A
C386        C949   1.490       .  S
C387        C388   1.370       .  A
C387        H390   1.082       .  S
C388        C389   1.380       .  A
C388        H391   1.082       .  S
C389        C925   1.480       .  S
N392        C396   1.361       .  A
N392        C393   1.361       .  A
N392        C997   1.443       .  S
C393        C394   1.384       .  A
C393        C912   1.482       .  S
C394        C395   1.371       .  A
C394        H397   1.083       .  S
C395        C396   1.379       .  A
C395        H398   1.083       .  S
C396        C877   1.478       .  S
N399        C403   1.363       .  A
N399        C400   1.362       .  A
N399       C1032   1.442       .  S
C400        C401   1.380       .  A
C400        C864   1.481       .  S
C401        C402   1.371       .  A
C401        H404   1.083       .  S
C402        C403   1.384       .  A
C402        H405   1.082       .  S
C403        C829   1.488       .  S
N406        N407   1.322       .  A
N406        C410   1.345       .  A
N406       Cu414   2.089       .  S
N407        C408   1.348       .  A
N407       Cu413   2.084       .  S
C408        C409   1.389       .  A
C408        H411   1.082       .  S
C409        C410   1.389       .  A
C409        C781   1.490       .  S
C410        H412   1.081       .  S
Cu413       N416   2.086       .  S
Cu414       N424   2.089       .  S
Cu415       N417   2.093       .  S
Cu415       N423   2.091       .  S
N416        N417   1.323       .  A
N416        C420   1.348       .  A
N417        C418   1.348       .  A
C418        C419   1.389       .  A
C418        H421   1.082       .  S
C419        C420   1.388       .  A
C419        C768   1.489       .  S
C420        H422   1.082       .  S
N423        N424   1.323       .  A
N423        C427   1.348       .  A
N424        C425   1.348       .  A
C425        C426   1.388       .  A
C425        H428   1.082       .  S
C426        C427   1.388       .  A
C426        C805   1.488       .  S
C427        H429   1.082       .  S
N430        C434   1.363       .  A
N430        C431   1.362       .  A
N430        C757   1.453       .  S
C431        C432   1.382       .  A
C431       C1608   1.472       .  S
C432        C433   1.369       .  A
C432        H435   1.083       .  S
C433        C434   1.381       .  A
C433        H436   1.083       .  S
C434        C936   1.479       .  S
N437        C441   1.364       .  A
N437        C438   1.363       .  A
N437        C792   1.443       .  S
C438        C439   1.384       .  A
C438       C1560   1.486       .  S
C439        C440   1.369       .  A
C439        H442   1.083       .  S
C440        C441   1.382       .  A
C440        H443   1.082       .  S
C441        C840   1.487       .  S
N444        C448   1.366       .  A
N444        C445   1.367       .  A
N444        C816   1.451       .  S
C445        C446   1.381       .  A
C445       C1584   1.482       .  S
C446        C447   1.370       .  A
C446        H449   1.083       .  S
C447        C448   1.381       .  A
C447        H450   1.083       .  S
C448        C888   1.486       .  S
N451        N452   1.323       .  A
N451        C455   1.348       .  A
N451       Cu459   2.098       .  S
N452        C453   1.346       .  A
N452       Cu458   2.089       .  S
C453        C454   1.390       .  A
C453        H456   1.081       .  S
C454        C455   1.392       .  A
C454        C744   1.496       .  S
C455        H457   1.081       .  S
Cu458       N461   2.089       .  S
Cu459       N469   2.099       .  S
Cu460       N462   2.069       .  S
Cu460       N468   2.069       .  S
N461        N462   1.320       .  A
N461        C465   1.349       .  A
N462        C463   1.343       .  A
C463        C464   1.389       .  A
C463        H466   1.082       .  S
C464        C465   1.393       .  A
C464        C709   1.495       .  S
C465        H467   1.082       .  S
N468        N469   1.321       .  A
N468        C472   1.344       .  A
N469        C470   1.350       .  A
C470        C471   1.393       .  A
C470        H473   1.081       .  S
C471        C472   1.386       .  A
C471        C685   1.492       .  S
C472        H474   1.081       .  S
N475        C479   1.360   1_655  A
N475        C476   1.361   1_655  A
N475        C696   1.445       .  S
C476        C477   1.384       .  A
C476        C960   1.481       .  S
C477        C478   1.371       .  A
C477        H480   1.082       .  S
C478        C479   1.380       .  A
C478        H481   1.083       .  S
C479        C672   1.475       .  S
N482        C486   1.361       .  A
N482        C483   1.360       .  A
N482        C733   1.439       .  S
C483        C484   1.383       .  A
C483        C901   1.484       .  S
C484        C485   1.371       .  A
C484        H487   1.083       .  S
C485        C486   1.383       .  A
C485        H488   1.083       .  S
C486        C648   1.484       .  S
N489        C493   1.360       .  A
N489        C490   1.361       .  A
N489        C720   1.439       .  S
C490        C491   1.384   1_545  A
C490        C853   1.486       .  S
C491        C492   1.373       .  A
C491        H494   1.083       .  S
C492        C493   1.382   1_565  A
C492        H495   1.082       .  S
C493        C624   1.484       .  S
N496        N497   1.322       .  A
N496        C500   1.346       .  A
N496       Cu504   2.082       .  S
N497        C498   1.347       .  A
N497       Cu503   2.089       .  S
C498        C499   1.391       .  A
C498        H501   1.081       .  S
C499        C500   1.390       .  A
C499        C576   1.494       .  S
C500        H502   1.081       .  S
Cu503       N506   2.089       .  S
Cu504       N514   2.081       .  S
Cu505       N507   2.083       .  S
Cu505       N513   2.082       .  S
N506        N507   1.322       .  A
N506        C510   1.349       .  A
N507        C508   1.345       .  A
C508        C509   1.388       .  A
C508        H511   1.082       .  S
C509        C510   1.391       .  A
C509        C541   1.492       .  S
C510        H512   1.081       .  S
N513        N514   1.320       .  A
N513        C517   1.346       .  A
N514        C515   1.347       .  A
C515        C516   1.391       .  A
C515        H518   1.081       .  S
C516        C517   1.391       .  A
C516        C589   1.494       .  S
C517        H519   1.080       .  S
N520        C524   1.361       .  A
N520        C521   1.360       .  A
N520        C552   1.441   1_545  S
C521        C522   1.384       .  A
C521       C1165   1.483       .  S
C522        C523   1.372       .  A
C522        H525   1.083       .  S
C523        C524   1.381       .  A
C523        H526   1.082       .  S
C524        C613   1.484       .  S
N527        C531   1.360       .  A
N527        C528   1.360       .  A
N527        C565   1.438       .  S
C528        C529   1.382       .  A
C528       C1141   1.483       .  S
C529        C530   1.372       .  A
C529        H532   1.082       .  S
C530        C531   1.383       .  A
C530        H533   1.082       .  S
C531        C637   1.486       .  S
N534        C538   1.361       .  A
N534        C535   1.362       .  A
N534        C600   1.446   1_655  S
C535        C536   1.384       .  A
C535       C1237   1.483       .  S
C536        C537   1.372       .  A
C536        H539   1.083       .  S
C537        C538   1.381       .  A
C537        H540   1.083       .  S
C538        C661   1.479       .  S
C541        C542   1.406       .  A
C541        C546   1.408       .  A
C542        C543   1.399       .  A
C542        H555   1.082       .  S
C543        C544   1.404       .  A
C543        H556   1.083       .  S
C544        C545   1.408       .  A
C544        C547   1.492       .  S
C545        C546   1.404       .  A
C545        H557   1.082       .  S
C546        H558   1.082       .  S
C547        C548   1.350       .  D
C547        H559   1.085       .  S
C548        C549   1.495       .  S
C548        H560   1.086       .  S
C549        C550   1.408       .  A
C549        C554   1.408       .  A
C550        C551   1.404       .  A
C550        H561   1.083       .  S
C551        C552   1.402       .  A
C551        H562   1.082       .  S
C552        C553   1.403       .  A
C553        C554   1.398       .  A
C553        H563   1.083       .  S
C554        H564   1.082       .  S
C565        C566   1.401       .  A
C565        C570   1.401       .  A
C566        C567   1.398       .  A
C566        H579   1.083       .  S
C567        C568   1.404       .  A
C567        H580   1.082       .  S
C568        C569   1.410       .  A
C568        C571   1.490       .  S
C569        C570   1.401       .  A
C569        H581   1.082       .  S
C570        H582   1.081       .  S
C571        C572   1.349       .  D
C571        H583   1.084       .  S
C572        C573   1.493       .  S
C572        H584   1.085       .  S
C573        C574   1.403       .  A
C573        C578   1.409       .  A
C574        C575   1.399       .  A
C574        H585   1.083       .  S
C575        C576   1.407       .  A
C575        H586   1.080       .  S
C576        C577   1.408       .  A
C577        C578   1.403       .  A
C577        H587   1.081       .  S
C578        H588   1.081       .  S
C589        C590   1.406       .  A
C589        C594   1.408       .  A
C590        C591   1.400       .  A
C590        H603   1.081       .  S
C591        C592   1.406       .  A
C591        H604   1.083       .  S
C592        C593   1.410       .  A
C592        C595   1.499       .  S
C593        C594   1.403       .  A
C593        H605   1.079       .  S
C594        H606   1.080       .  S
C595        C596   1.353       .  D
C595        H607   1.083       .  S
C596        C597   1.499       .  S
C596        H608   1.083       .  S
C597        C598   1.407       .  A
C597        C602   1.411       .  A
C598        C599   1.401       .  A
C598        H609   1.083       .  S
C599        C600   1.403       .  A
C599        H610   1.082       .  S
C600        C601   1.404       .  A
C601        C602   1.401       .  A
C601        H611   1.082       .  S
C602        H612   1.080       .  S
C613        C614   1.404       .  A
C613        C618   1.404       .  A
C614        C615   1.399       .  A
C614        H627   1.082       .  S
C615        C616   1.404       .  A
C615        H628   1.083   1_545  S
C616        C617   1.407       .  A
C616        C619   1.485       .  S
C617        C618   1.398       .  A
C617        H629   1.081       .  S
C618        H630   1.083       .  S
C619        C620   1.349       .  D
C619        H631   1.086   1_545  S
C620        C621   1.485       .  S
C620        H632   1.085       .  S
C621        C622   1.404       .  A
C621        C626   1.406       .  A
C622        C623   1.400       .  A
C622        H633   1.083       .  S
C623        C624   1.403       .  A
C623        H634   1.081       .  S
C624        C625   1.406       .  A
C625        C626   1.397       .  A
C625        H635   1.083       .  S
C626        H636   1.083       .  S
C637        C638   1.404       .  A
C637        C642   1.406       .  A
C638        C639   1.402       .  A
C638        H651   1.081       .  S
C639        C640   1.406       .  A
C639        H652   1.083       .  S
C640        C641   1.406       .  A
C640        C643   1.490       .  S
C641        C642   1.398       .  A
C641        H653   1.082       .  S
C642        H654   1.083       .  S
C643        C644   1.351       .  D
C643        H655   1.085       .  S
C644        C645   1.489       .  S
C644        H656   1.085       .  S
C645        C646   1.406       .  A
C645        C650   1.407       .  A
C646        C647   1.402       .  A
C646        H657   1.083       .  S
C647        C648   1.403       .  A
C647        H658   1.079       .  S
C648        C649   1.405       .  A
C649        C650   1.397       .  A
C649        H659   1.084       .  S
C650        H660   1.081       .  S
C661        C662   1.404       .  A
C661        C666   1.401   1_655  A
C662        C663   1.397       .  A
C662        H675   1.083       .  S
C663        C664   1.402       .  A
C663        H676   1.084       .  S
C664        C665   1.411   1_655  A
C664        C667   1.488       .  S
C665        C666   1.400       .  A
C665        H677   1.081       .  S
C666        H678   1.084       .  S
C667        C668   1.347   1_655  D
C667        H679   1.085       .  S
C668        C669   1.487       .  S
C668        H680   1.086       .  S
C669        C670   1.403       .  A
C669        C674   1.411   1_455  A
C670        C671   1.395       .  A
C670        H681   1.084       .  S
C671        C672   1.402       .  A
C671        H682   1.083       .  S
C672        C673   1.401   1_455  A
C673        C674   1.402       .  A
C673        H683   1.084       .  S
C674        H684   1.081       .  S
C685        C686   1.407       .  A
C685        C690   1.406       .  A
C686        C687   1.399       .  A
C686        H699   1.081       .  S
C687        C688   1.405       .  A
C687        H700   1.084       .  S
C688        C689   1.412       .  A
C688        C691   1.499       .  S
C689        C690   1.404       .  A
C689        H701   1.079       .  S
C690        H702   1.082       .  S
C691        C692   1.351       .  D
C691        H703   1.084       .  S
C692        C693   1.496       .  S
C692        H704   1.082       .  S
C693        C694   1.406       .  A
C693        C698   1.411       .  A
C694        C695   1.400       .  A
C694        H705   1.083       .  S
C695        C696   1.403       .  A
C695        H706   1.082       .  S
C696        C697   1.404       .  A
C697        C698   1.402       .  A
C697        H707   1.082       .  S
C698        H708   1.081       .  S
C709        C710   1.408       .  A
C709        C714   1.408       .  A
C710        C711   1.398       .  A
C710        H723   1.081       .  S
C711        C712   1.402       .  A
C711        H724   1.084       .  S
C712        C713   1.409       .  A
C712        C715   1.492       .  S
C713        C714   1.404       .  A
C713        H725   1.081       .  S
C714        H726   1.082       .  S
C715        C716   1.349       .  D
C715        H727   1.085       .  S
C716        C717   1.494       .  S
C716        H728   1.085       .  S
C717        C718   1.406       .  A
C717        C722   1.411       .  A
C718        C719   1.400       .  A
C718        H729   1.084       .  S
C719        C720   1.401       .  A
C719        H730   1.083       .  S
C720        C721   1.401       .  A
C721        C722   1.401       .  A
C721        H731   1.083       .  S
C722        H732   1.081       .  S
C733        C734   1.400       .  A
C733        C738   1.402       .  A
C734        C735   1.400       .  A
C734        H747   1.083       .  S
C735        C736   1.407       .  A
C735        H748   1.083       .  S
C736        C737   1.410       .  A
C736        C739   1.494       .  S
C737        C738   1.402       .  A
C737        H749   1.082       .  S
C738        H750   1.083       .  S
C739        C740   1.351       .  D
C739        H751   1.085       .  S
C740        C741   1.495       .  S
C740        H752   1.085       .  S
C741        C742   1.404       .  A
C741        C746   1.408       .  A
C742        C743   1.401       .  A
C742        H753   1.083       .  S
C743        C744   1.409       .  A
C743        H754   1.081       .  S
C744        C745   1.408       .  A
C745        C746   1.402       .  A
C745        H755   1.082       .  S
C746        H756   1.081       .  S
C757        C758   1.407       .  A
C757        C762   1.409       .  A
C758        C759   1.396       .  A
C758        H771   1.082       .  S
C759        C760   1.401       .  A
C759        H772   1.083       .  S
C760        C761   1.407       .  A
C760        C763   1.487       .  S
C761        C762   1.405       .  A
C761        H773   1.083       .  S
C762        H774   1.075       .  S
C763        C764   1.347       .  D
C763        H775   1.087       .  S
C764        C765   1.489       .  S
C764        H776   1.086       .  S
C765        C766   1.404       .  A
C765        C770   1.407       .  A
C766        C767   1.403       .  A
C766        H777   1.083       .  S
C767        C768   1.407       .  A
C767        H778   1.082       .  S
C768        C769   1.406       .  A
C769        C770   1.401       .  A
C769        H779   1.082       .  S
C770        H780   1.083       .  S
C781        C782   1.407       .  A
C781        C786   1.407       .  A
C782        C783   1.402       .  A
C782        H795   1.083       .  S
C783        C784   1.405       .  A
C783        H796   1.083       .  S
C784        C785   1.407       .  A
C784        C787   1.492       .  S
C785        C786   1.399       .  A
C785        H797   1.082       .  S
C786        H798   1.082       .  S
C787        C788   1.349       .  D
C787        H799   1.086       .  S
C788        C789   1.489       .  S
C788        H800   1.085       .  S
C789        C790   1.403       .  A
C789        C794   1.409       .  A
C790        C791   1.396       .  A
C790        H801   1.083       .  S
C791        C792   1.403       .  A
C791        H802   1.083       .  S
C792        C793   1.405       .  A
C793        C794   1.404       .  A
C793        H803   1.082       .  S
C794        H804   1.082       .  S
C805        C806   1.406       .  A
C805        C810   1.406       .  A
C806        C807   1.402       .  A
C806        H819   1.083       .  S
C807        C808   1.404       .  A
C807        H820   1.083       .  S
C808        C809   1.408       .  A
C808        C811   1.492       .  S
C809        C810   1.402       .  A
C809        H821   1.082       .  S
C810        H822   1.083       .  S
C811        C812   1.348       .  D
C811        H823   1.087       .  S
C812        C813   1.488       .  S
C812        H824   1.086       .  S
C813        C814   1.401       .  A
C813        C818   1.407       .  A
C814        C815   1.397       .  A
C814        H825   1.083       .  S
C815        C816   1.407       .  A
C815        H826   1.082       .  S
C816        C817   1.408       .  A
C817        C818   1.406       .  A
C817        H827   1.079       .  S
C818        H828   1.083       .  S
C829        C830   1.405       .  A
C829        C834   1.407       .  A
C830        C831   1.402       .  A
C830        H843   1.081       .  S
C831        C832   1.406       .  A
C831        H844   1.083       .  S
C832        C833   1.405       .  A
C832        C835   1.489       .  S
C833        C834   1.397       .  A
C833        H845   1.082       .  S
C834        H846   1.083       .  S
C835        C836   1.352       .  D
C835        H847   1.085       .  S
C836        C837   1.489       .  S
C836        H848   1.085       .  S
C837        C838   1.406       .  A
C837        C842   1.406       .  A
C838        C839   1.402       .  A
C838        H849   1.083       .  S
C839        C840   1.404       .  A
C839        H850   1.083       .  S
C840        C841   1.405       .  A
C841        C842   1.397       .  A
C841        H851   1.084       .  S
C842        H852   1.081       .  S
C853        C854   1.403       .  A
C853        C858   1.406       .  A
C854        C855   1.403       .  A
C854        H867   1.079       .  S
C855        C856   1.407       .  A
C855        H868   1.083       .  S
C856        C857   1.408       .  A
C856        C859   1.497       .  S
C857        C858   1.400       .  A
C857        H869   1.080       .  S
C858        H870   1.083       .  S
C859        C860   1.354   1_545  D
C859        H871   1.084       .  S
C860        C861   1.495       .  S
C860        H872   1.084       .  S
C861        C862   1.409       .  A
C861        C866   1.407       .  A
C862        C863   1.402       .  A
C862        H873   1.081   1_565  S
C863        C864   1.406       .  A
C863        H874   1.084       .  S
C864        C865   1.401       .  A
C865        C866   1.400       .  A
C865        H875   1.080       .  S
C866        H876   1.083       .  S
C877        C878   1.402       .  A
C877        C882   1.402       .  A
C878        C879   1.404       .  A
C878        H891   1.083       .  S
C879        C880   1.407       .  A
C879        H892   1.083       .  S
C880        C881   1.407       .  A
C880        C883   1.491       .  S
C881        C882   1.397       .  A
C881        H893   1.082       .  S
C882        H894   1.083       .  S
C883        C884   1.348       .  D
C883        H895   1.087       .  S
C884        C885   1.486       .  S
C884        H896   1.086       .  S
C885        C886   1.401       .  A
C885        C890   1.409       .  A
C886        C887   1.398       .  A
C886        H897   1.084       .  S
C887        C888   1.405       .  A
C887        H898   1.083       .  S
C888        C889   1.404       .  A
C889        C890   1.404       .  A
C889        H899   1.084       .  S
C890        H900   1.082       .  S
C901        C902   1.405       .  A
C901        C906   1.403       .  A
C902        C903   1.397       .  A
C902        H915   1.083       .  S
C903        C904   1.403       .  A
C903        H916   1.084       .  S
C904        C905   1.413       .  A
C904        C907   1.495       .  S
C905        C906   1.404       .  A
C905        H917   1.079       .  S
C906        H918   1.080       .  S
C907        C908   1.348       .  D
C907        H919   1.084       .  S
C908        C909   1.493       .  S
C908        H920   1.084       .  S
C909        C910   1.403       .  A
C909        C914   1.413       .  A
C910        C911   1.397       .  A
C910        H921   1.084       .  S
C911        C912   1.405       .  A
C911        H922   1.083       .  S
C912        C913   1.402       .  A
C913        C914   1.403       .  A
C913        H923   1.084       .  S
C914        H924   1.081       .  S
C925        C926   1.403       .  A
C925        C930   1.404       .  A
C926        C927   1.396       .  A
C926        H939   1.084       .  S
C927        C928   1.402       .  A
C927        H940   1.083       .  S
C928        C929   1.408       .  A
C928        C931   1.484       .  S
C929        C930   1.400       .  A
C929        H941   1.081       .  S
C930        H942   1.082       .  S
C931        C932   1.347       .  D
C931        H943   1.085       .  S
C932        C933   1.486       .  S
C932        H944   1.085       .  S
C933        C934   1.403       .  A
C933        C938   1.409       .  A
C934        C935   1.398       .  A
C934        H945   1.083       .  S
C935        C936   1.404       .  A
C935        H946   1.083       .  S
C936        C937   1.402       .  A
C937        C938   1.398       .  A
C937        H947   1.082       .  S
C938        H948   1.082       .  S
C949        C950   1.407       .  A
C949        C954   1.406       .  A
C950        C951   1.406       .  A
C950        H963   1.081       .  S
C951        C952   1.406       .  A
C951        H964   1.082       .  S
C952        C953   1.403       .  A
C952        C955   1.488       .  S
C953        C954   1.393       .  A
C953        H965   1.083       .  S
C954        H966   1.083       .  S
C955        C956   1.351       .  D
C955        H967   1.084       .  S
C956        C957   1.492       .  S
C956        H968   1.087       .  S
C957        C958   1.407   1_455  A
C957        C962   1.408       .  A
C958        C959   1.400       .  A
C958        H969   1.083       .  S
C959        C960   1.402   1_655  A
C959        H970   1.083       .  S
C960        C961   1.405       .  A
C961        C962   1.400       .  A
C961        H971   1.083       .  S
C962        H972   1.080       .  S
C973        C974   1.407       .  A
C973        C978   1.408       .  A
C974        C975   1.399       .  A
C974        H987   1.082       .  S
C975        C976   1.403       .  A
C975        H988   1.083       .  S
C976        C977   1.407       .  A
C976        C979   1.490       .  S
C977        C978   1.403       .  A
C977        H989   1.082       .  S
C978        H990   1.082       .  S
C979        C980   1.350       .  D
C979        H991   1.086       .  S
C980        C981   1.491       .  S
C980        H992   1.085       .  S
C981        C982   1.406       .  A
C981        C986   1.407       .  A
C982        C983   1.403       .  A
C982        H993   1.084       .  S
C983        C984   1.405       .  A
C983        H994   1.083       .  S
C984        C985   1.404       .  A
C985        C986   1.397       .  A
C985        H995   1.083       .  S
C986        H996   1.083       .  S
C997        C998   1.403       .  A
C997       C1002   1.404       .  A
C998        C999   1.400       .  A
C998       H1011   1.082       .  S
C999       C1000   1.405       .  A
C999       H1012   1.083       .  S
C1000      C1001   1.410       .  A
C1000      C1003   1.493       .  S
C1001      C1002   1.401       .  A
C1001      H1013   1.081       .  S
C1002      H1014   1.083       .  S
C1003      C1004   1.349       .  D
C1003      H1015   1.085       .  S
C1004      C1005   1.491       .  S
C1004      H1016   1.084       .  S
C1005      C1006   1.402       .  A
C1005      C1010   1.408       .  A
C1006      C1007   1.399       .  A
C1006      H1017   1.083       .  S
C1007      C1008   1.407       .  A
C1007      H1018   1.080       .  S
C1008      C1009   1.411       .  A
C1009      C1010   1.406       .  A
C1009      H1019   1.081       .  S
C1010      H1020   1.082       .  S
C1021      C1022   1.406       .  A
C1021      C1026   1.408       .  A
C1022      C1023   1.398       .  A
C1022      H1035   1.081       .  S
C1023      C1024   1.403       .  A
C1023      H1036   1.083       .  S
C1024      C1025   1.409       .  A
C1024      C1027   1.491       .  S
C1025      C1026   1.403       .  A
C1025      H1037   1.082   1_565  S
C1026      H1038   1.082   1_565  S
C1027      C1028   1.349       .  D
C1027      H1039   1.086       .  S
C1028      C1029   1.492       .  S
C1028      H1040   1.085       .  S
C1029      C1030   1.405       .  A
C1029      C1034   1.410       .  A
C1030      C1031   1.400       .  A
C1030      H1041   1.083       .  S
C1031      C1032   1.402       .  A
C1031      H1042   1.083       .  S
C1032      C1033   1.403       .  A
C1033      C1034   1.402       .  A
C1033      H1043   1.080       .  S
C1034      H1044   1.082       .  S
C1045      C1046   1.404       .  A
C1045      C1050   1.406       .  A
C1046      C1047   1.399       .  A
C1046      H1059   1.083       .  S
C1047      C1048   1.405       .  A
C1047      H1060   1.083       .  S
C1048      C1049   1.410       .  A
C1048      C1051   1.494       .  S
C1049      C1050   1.400       .  A
C1049      H1061   1.081       .  S
C1050      H1062   1.082       .  S
C1051      C1052   1.351       .  D
C1051      H1063   1.084       .  S
C1052      C1053   1.494       .  S
C1052      H1064   1.084       .  S
C1053      C1054   1.407       .  A
C1053      C1058   1.411       .  A
C1054      C1055   1.399       .  A
C1054      H1065   1.083       .  S
C1055      C1056   1.400       .  A
C1055      H1066   1.083       .  S
C1056      C1057   1.402       .  A
C1057      C1058   1.402       .  A
C1057      H1067   1.082       .  S
C1058      H1068   1.081       .  S
C1069      C1070   1.399       .  A
C1069      C1074   1.402       .  A
C1070      C1071   1.396       .  A
C1070      H1083   1.083       .  S
C1071      C1072   1.405       .  A
C1071      H1084   1.084       .  S
C1072      C1073   1.411       .  A
C1072      C1075   1.490       .  S
C1073      C1074   1.404       .  A
C1073      H1085   1.082       .  S
C1074      H1086   1.083       .  S
C1075      C1076   1.350       .  D
C1075      H1087   1.085       .  S
C1076      C1077   1.495       .  S
C1076      H1088   1.086       .  S
C1077      C1078   1.405       .  A
C1077      C1082   1.408       .  A
C1078      C1079   1.402       .  A
C1078      H1089   1.084       .  S
C1079      C1080   1.408       .  A
C1079      H1090   1.081       .  S
C1080      C1081   1.406       .  A
C1081      C1082   1.399       .  A
C1081      H1091   1.081       .  S
C1082      H1092   1.081       .  S
C1093      C1094   1.405       .  A
C1093      C1098   1.406       .  A
C1094      C1095   1.401       .  A
C1094      H1107   1.076       .  S
C1095      C1096   1.404       .  A
C1095      H1108   1.083       .  S
C1096      C1097   1.406       .  A
C1096      C1099   1.489       .  S
C1097      C1098   1.400       .  A
C1097      H1109   1.082       .  S
C1098      H1110   1.082       .  S
C1099      C1100   1.349       .  D
C1099      H1111   1.086       .  S
C1100      C1101   1.490       .  S
C1100      H1112   1.087       .  S
C1101      C1102   1.404       .  A
C1101      C1106   1.407       .  A
C1102      C1103   1.402       .  A
C1102      H1113   1.084       .  S
C1103      C1104   1.406       .  A
C1103      H1114   1.083       .  S
C1104      C1105   1.406       .  A
C1105      C1106   1.402       .  A
C1105      H1115   1.083       .  S
C1106      H1116   1.082       .  S
C1117      C1118   1.403       .  A
C1117      C1122   1.406       .  A
C1118      C1119   1.399       .  A
C1118      H1131   1.083       .  S
C1119      C1120   1.406       .  A
C1119      H1132   1.082       .  S
C1120      C1121   1.405       .  A
C1120      C1123   1.484       .  S
C1121      C1122   1.396       .  A
C1121      H1133   1.082       .  S
C1122      H1134   1.083       .  S
C1123      C1124   1.352       .  D
C1123      H1135   1.083       .  S
C1124      C1125   1.490       .  S
C1124      H1136   1.085       .  S
C1125      C1126   1.407       .  A
C1125      C1130   1.406       .  A
C1126      C1127   1.403       .  A
C1126      H1137   1.083       .  S
C1127      C1128   1.403       .  A
C1127      H1138   1.081       .  S
C1128      C1129   1.404       .  A
C1129      C1130   1.393       .  A
C1129      H1139   1.083       .  S
C1130      H1140   1.081       .  S
C1141      C1142   1.402       .  A
C1141      C1146   1.406       .  A
C1142      C1143   1.399       .  A
C1142      H1155   1.080       .  S
C1143      C1144   1.406       .  A
C1143      H1156   1.084       .  S
C1144      C1145   1.407       .  A
C1144      C1147   1.490       .  S
C1145      C1146   1.402       .  A
C1145      H1157   1.081       .  S
C1146      H1158   1.083       .  S
C1147      C1148   1.350       .  D
C1147      H1159   1.088       .  S
C1148      C1149   1.487       .  S
C1148      H1160   1.085       .  S
C1149      C1150   1.406       .  A
C1149      C1154   1.403       .  A
C1150      C1151   1.407       .  A
C1150      H1161   1.083       .  S
C1151      C1152   1.407       .  A
C1151      H1162   1.083       .  S
C1152      C1153   1.404       .  A
C1153      C1154   1.392       .  A
C1153      H1163   1.083       .  S
C1154      H1164   1.083       .  S
C1165      C1166   1.402       .  A
C1165      C1170   1.407       .  A
C1166      C1167   1.392       .  A
C1166      H1179   1.084       .  S
C1167      C1168   1.401       .  A
C1167      H1180   1.083       .  S
C1168      C1169   1.411       .  A
C1168      C1171   1.488       .  S
C1169      C1170   1.410       .  A
C1169      H1181   1.083   1_545  S
C1170      H1182   1.082   1_545  S
C1171      C1172   1.346       .  D
C1171      H1183   1.087       .  S
C1172      C1173   1.488       .  S
C1172      H1184   1.085   1_545  S
C1173      C1174   1.402       .  A
C1173      C1178   1.409       .  A
C1174      C1175   1.400       .  A
C1174      H1185   1.084   1_545  S
C1175      C1176   1.405       .  A
C1175      H1186   1.083   1_545  S
C1176      C1177   1.403       .  A
C1177      C1178   1.401       .  A
C1177      H1187   1.083       .  S
C1178      H1188   1.083       .  S
C1189      C1190   1.406       .  A
C1189      C1194   1.407       .  A
C1190      C1191   1.401       .  A
C1190      H1203   1.083       .  S
C1191      C1192   1.405       .  A
C1191      H1204   1.083       .  S
C1192      C1193   1.403       .  A
C1192      C1195   1.485       .  S
C1193      C1194   1.396       .  A
C1193      H1205   1.083       .  S
C1194      H1206   1.083       .  S
C1195      C1196   1.349       .  D
C1195      H1207   1.086       .  S
C1196      C1197   1.485       .  S
C1196      H1208   1.086       .  S
C1197      C1198   1.405       .  A
C1197      C1202   1.404       .  A
C1198      C1199   1.401       .  A
C1198      H1209   1.083       .  S
C1199      C1200   1.404       .  A
C1199      H1210   1.082       .  S
C1200      C1201   1.407       .  A
C1201      C1202   1.397       .  A
C1201      H1211   1.083       .  S
C1202      H1212   1.082       .  S
C1213      C1214   1.401       .  A
C1213      C1218   1.403       .  A
C1214      C1215   1.403       .  A
C1214      H1227   1.082       .  S
C1215      C1216   1.407       .  A
C1215      H1228   1.083       .  S
C1216      C1217   1.406       .  A
C1216      C1219   1.490       .  S
C1217      C1218   1.396       .  A
C1217      H1229   1.081       .  S
C1218      H1230   1.084       .  S
C1219      C1220   1.353       .  D
C1219      H1231   1.083       .  S
C1220      C1221   1.491       .  S
C1220      H1232   1.085       .  S
C1221      C1222   1.407       .  A
C1221      C1226   1.407       .  A
C1222      C1223   1.401       .  A
C1222      H1233   1.083       .  S
C1223      C1224   1.402       .  A
C1223      H1234   1.082       .  S
C1224      C1225   1.404       .  A
C1225      C1226   1.397       .  A
C1225      H1235   1.083       .  S
C1226      H1236   1.080       .  S
C1237      C1238   1.401   1_655  A
C1237      C1242   1.405       .  A
C1238      C1239   1.401       .  A
C1238      H1251   1.083       .  S
C1239      C1240   1.409   1_455  A
C1239      H1252   1.083       .  S
C1240      C1241   1.410       .  A
C1240      C1243   1.497       .  S
C1241      C1242   1.399       .  A
C1241      H1253   1.079       .  S
C1242      H1254   1.083       .  S
C1243      C1244   1.353       .  D
C1243      H1255   1.084       .  S
C1244      C1245   1.495       .  S
C1244      H1256   1.083       .  S
C1245      C1246   1.408       .  A
C1245      C1250   1.409       .  A
C1246      C1247   1.401       .  A
C1246      H1257   1.082       .  S
C1247      C1248   1.401       .  A
C1247      H1258   1.083       .  S
C1248      C1249   1.404       .  A
C1249      C1250   1.399       .  A
C1249      H1259   1.083       .  S
C1250      H1260   1.081       .  S
C1261      C1262   1.408       .  A
C1261      C1266   1.408       .  A
C1262      C1263   1.401       .  A
C1262      H1275   1.080       .  S
C1263      C1264   1.405       .  A
C1263      H1276   1.083       .  S
C1264      C1265   1.410       .  A
C1264      C1267   1.498       .  S
C1265      C1266   1.403       .  A
C1265      H1277   1.080       .  S
C1266      H1278   1.081       .  S
C1267      C1268   1.353       .  D
C1267      H1279   1.083       .  S
C1268      C1269   1.499       .  S
C1268      H1280   1.084       .  S
C1269      C1270   1.407       .  A
C1269      C1274   1.412       .  A
C1270      C1271   1.400       .  A
C1270      H1281   1.084       .  S
C1271      C1272   1.403       .  A
C1271      H1282   1.082       .  S
C1272      C1273   1.405       .  A
C1273      C1274   1.402       .  A
C1273      H1283   1.082       .  S
C1274      H1284   1.080       .  S
C1285      C1286   1.406   1_545  A
C1285      C1290   1.409       .  A
C1286      C1287   1.398   1_565  A
C1286      H1299   1.082       .  S
C1287      C1288   1.404       .  A
C1287      H1300   1.083   1_545  S
C1288      C1289   1.410       .  A
C1288      C1291   1.496       .  S
C1289      C1290   1.407       .  A
C1289      H1301   1.081       .  S
C1290      H1302   1.082       .  S
C1291      C1292   1.353       .  D
C1291      H1303   1.085       .  S
C1292      C1293   1.498       .  S
C1292      H1304   1.084       .  S
C1293      C1294   1.408       .  A
C1293      C1298   1.409       .  A
C1294      C1295   1.405       .  A
C1294      H1305   1.083       .  S
C1295      C1296   1.405       .  A
C1295      H1306   1.082       .  S
C1296      C1297   1.402       .  A
C1297      C1298   1.397       .  A
C1297      H1307   1.083       .  S
C1298      H1308   1.080       .  S
C1309      C1310   1.406       .  A
C1309      C1314   1.404       .  A
C1310      C1311   1.401       .  A
C1310      H1323   1.083       .  S
C1311      C1312   1.404       .  A
C1311      H1324   1.083       .  S
C1312      C1313   1.406       .  A
C1312      C1315   1.485       .  S
C1313      C1314   1.397       .  A
C1313      H1325   1.082       .  S
C1314      H1326   1.082       .  S
C1315      C1316   1.346       .  D
C1315      H1327   1.086       .  S
C1316      C1317   1.484       .  S
C1316      H1328   1.087       .  S
C1317      C1318   1.402       .  A
C1317      C1322   1.408       .  A
C1318      C1319   1.396       .  A
C1318      H1329   1.083       .  S
C1319      C1320   1.403       .  A
C1319      H1330   1.082       .  S
C1320      C1321   1.406       .  A
C1321      C1322   1.403       .  A
C1321      H1331   1.082       .  S
C1322      H1332   1.082       .  S
C1333      C1334   1.402       .  A
C1333      C1338   1.401       .  A
C1334      C1335   1.402       .  A
C1334      H1347   1.081       .  S
C1335      C1336   1.407       .  A
C1335      H1348   1.083       .  S
C1336      C1337   1.410       .  A
C1336      C1339   1.494       .  S
C1337      C1338   1.399       .  A
C1337      H1349   1.081       .  S
C1338      H1350   1.083       .  S
C1339      C1340   1.350       .  D
C1339      H1351   1.085       .  S
C1340      C1341   1.491       .  S
C1340      H1352   1.085       .  S
C1341      C1342   1.403       .  A
C1341      C1346   1.408       .  A
C1342      C1343   1.399       .  A
C1342      H1353   1.083       .  S
C1343      C1344   1.407       .  A
C1343      H1354   1.081       .  S
C1344      C1345   1.407       .  A
C1345      C1346   1.402       .  A
C1345      H1355   1.082       .  S
C1346      H1356   1.082       .  S
C1357      C1358   1.405       .  A
C1357      C1362   1.404       .  A
C1358      C1359   1.403       .  A
C1358      H1371   1.082       .  S
C1359      C1360   1.406       .  A
C1359      H1372   1.083       .  S
C1360      C1361   1.406       .  A
C1360      C1363   1.488       .  S
C1361      C1362   1.396       .  A
C1361      H1373   1.083       .  S
C1362      H1374   1.082       .  S
C1363      C1364   1.347       .  D
C1363      H1375   1.087       .  S
C1364      C1365   1.484       .  S
C1364      H1376   1.087       .  S
C1365      C1366   1.401       .  A
C1365      C1370   1.407       .  A
C1366      C1367   1.396       .  A
C1366      H1377   1.084       .  S
C1367      C1368   1.405       .  A
C1367      H1378   1.082       .  S
C1368      C1369   1.406       .  A
C1369      C1370   1.404       .  A
C1369      H1379   1.084       .  S
C1370      H1380   1.083       .  S
C1381      C1382   1.401       .  A
C1381      C1386   1.404       .  A
C1382      C1383   1.396       .  A
C1382      H1395   1.083       .  S
C1383      C1384   1.405       .  A
C1383      H1396   1.083       .  S
C1384      C1385   1.414       .  A
C1384      C1387   1.499       .  S
C1385      C1386   1.406       .  A
C1385      H1397   1.080       .  S
C1386      H1398   1.083       .  S
C1387      C1388   1.351       .  D
C1387      H1399   1.082       .  S
C1388      C1389   1.500       .  S
C1388      H1400   1.083       .  S
C1389      C1390   1.404       .  A
C1389      C1394   1.412       .  A
C1390      C1391   1.400       .  A
C1390      H1401   1.083       .  S
C1391      C1392   1.407       .  A
C1391      H1402   1.081       .  S
C1392      C1393   1.407       .  A
C1393      C1394   1.404       .  A
C1393      H1403   1.082       .  S
C1394      H1404   1.079       .  S
C1405      C1406   1.404       .  A
C1405      C1410   1.406       .  A
C1406      C1407   1.402       .  A
C1406      H1419   1.082       .  S
C1407      C1408   1.407       .  A
C1407      H1420   1.083       .  S
C1408      C1409   1.405       .  A
C1408      C1411   1.488       .  S
C1409      C1410   1.397       .  A
C1409      H1421   1.082   1_655  S
C1410      H1422   1.082   1_655  S
C1411      C1412   1.351   1_655  D
C1411      H1423   1.086       .  S
C1412      C1413   1.486       .  S
C1412      H1424   1.085       .  S
C1413      C1414   1.405   1_556  A
C1413      C1418   1.405       .  A
C1414      C1415   1.402       .  A
C1414      H1425   1.083       .  S
C1415      C1416   1.404       .  A
C1415      H1426   1.081       .  S
C1416      C1417   1.404   1_554  A
C1417      C1418   1.396       .  A
C1417      H1427   1.083   1_455  S
C1418      H1428   1.081       .  S
C1429      C1430   1.402       .  A
C1429      C1434   1.405       .  A
C1430      C1431   1.403       .  A
C1430      H1443   1.082       .  S
C1431      C1432   1.409       .  A
C1431      H1444   1.083       .  S
C1432      C1433   1.407       .  A
C1432      C1435   1.494       .  S
C1433      C1434   1.397       .  A
C1433      H1445   1.081       .  S
C1434      H1446   1.083       .  S
C1435      C1436   1.355       .  D
C1435      H1447   1.084       .  S
C1436      C1437   1.494       .  S
C1436      H1448   1.084       .  S
C1437      C1438   1.409       .  A
C1437      C1442   1.407       .  A
C1438      C1439   1.404   1_556  A
C1438      H1449   1.083       .  S
C1439      C1440   1.403       .  A
C1439      H1450   1.082       .  S
C1440      C1441   1.405       .  A
C1441      C1442   1.397   1_554  A
C1441      H1451   1.083       .  S
C1442      H1452   1.080       .  S
C1453      C1454   1.403   1_545  A
C1453      C1458   1.405   1_554  A
C1454      C1455   1.401       .  A
C1454      H1467   1.081       .  S
C1455      C1456   1.407   1_554  A
C1455      H1468   1.083       .  S
C1456      C1457   1.408   1_565  A
C1456      C1459   1.493       .  S
C1457      C1458   1.398       .  A
C1457      H1469   1.081       .  S
C1458      H1470   1.082       .  S
C1459      C1460   1.352   1_565  D
C1459      H1471   1.085       .  S
C1460      C1461   1.491       .  S
C1460      H1472   1.083       .  S
C1461      C1462   1.407       .  A
C1461      C1466   1.407   1_545  A
C1462      C1463   1.402       .  A
C1462      H1473   1.082       .  S
C1463      C1464   1.403   1_545  A
C1463      H1474   1.083       .  S
C1464      C1465   1.405       .  A
C1465      C1466   1.398       .  A
C1465      H1475   1.083       .  S
C1466      H1476   1.081       .  S
C1477      C1478   1.401       .  A
C1477      C1482   1.402       .  A
C1478      C1479   1.398       .  A
C1478      H1491   1.084       .  S
C1479      C1480   1.405       .  A
C1479      H1492   1.083       .  S
C1480      C1481   1.410       .  A
C1480      C1483   1.492       .  S
C1481      C1482   1.402       .  A
C1481      H1493   1.081       .  S
C1482      H1494   1.080       .  S
C1483      C1484   1.350       .  D
C1483      H1495   1.085       .  S
C1484      C1485   1.491       .  S
C1484      H1496   1.085       .  S
C1485      C1486   1.404       .  A
C1485      C1490   1.407       .  A
C1486      C1487   1.400       .  A
C1486      H1497   1.084       .  S
C1487      C1488   1.407       .  A
C1487      H1498   1.081       .  S
C1488      C1489   1.407       .  A
C1489      C1490   1.400       .  A
C1489      H1499   1.080       .  S
C1490      H1500   1.082       .  S
C1501      C1502   1.407       .  A
C1501      C1506   1.407       .  A
C1502      C1503   1.399       .  A
C1502      H1515   1.081       .  S
C1503      C1504   1.403       .  A
C1503      H1516   1.083       .  S
C1504      C1505   1.408       .  A
C1504      C1507   1.492       .  S
C1505      C1506   1.401       .  A
C1505      H1517   1.081       .  S
C1506      H1518   1.081       .  S
C1507      C1508   1.349       .  D
C1507      H1519   1.084       .  S
C1508      C1509   1.491       .  S
C1508      H1520   1.085       .  S
C1509      C1510   1.404       .  A
C1509      C1514   1.412       .  A
C1510      C1511   1.396       .  A
C1510      H1521   1.083       .  S
C1511      C1512   1.400       .  A
C1511      H1522   1.083       .  S
C1512      C1513   1.401       .  A
C1513      C1514   1.403       .  A
C1513      H1523   1.083       .  S
C1514      H1524   1.080       .  S
C1525      C1526   1.406       .  A
C1525      C1530   1.406       .  A
C1526      C1527   1.399       .  A
C1526      H1539   1.082       .  S
C1527      C1528   1.405       .  A
C1527      H1540   1.083       .  S
C1528      C1529   1.411       .  A
C1528      C1531   1.497       .  S
C1529      C1530   1.400       .  A
C1529      H1541   1.079       .  S
C1530      H1542   1.081       .  S
C1531      C1532   1.350       .  D
C1531      H1543   1.084       .  S
C1532      C1533   1.493       .  S
C1532      H1544   1.081       .  S
C1533      C1534   1.404       .  A
C1533      C1538   1.411       .  A
C1534      C1535   1.396       .  A
C1534      H1545   1.083       .  S
C1535      C1536   1.402       .  A
C1535      H1546   1.083       .  S
C1536      C1537   1.404       .  A
C1537      C1538   1.402       .  A
C1537      H1547   1.082       .  S
C1538      H1548   1.080       .  S
C1549      C1550   1.402       .  A
C1549      C1554   1.407       .  A
C1550      C1551   1.401       .  A
C1550      H1563   1.080       .  S
C1551      C1552   1.407       .  A
C1551      H1564   1.083       .  S
C1552      C1553   1.407       .  A
C1552      C1555   1.491       .  S
C1553      C1554   1.401       .  A
C1553      H1565   1.081       .  S
C1554      H1566   1.083       .  S
C1555      C1556   1.351       .  D
C1555      H1567   1.087       .  S
C1556      C1557   1.488       .  S
C1556      H1568   1.084       .  S
C1557      C1558   1.407       .  A
C1557      C1562   1.403       .  A
C1558      C1559   1.408       .  A
C1558      H1569   1.082       .  S
C1559      C1560   1.406       .  A
C1559      H1570   1.082       .  S
C1560      C1561   1.405       .  A
C1561      C1562   1.392       .  A
C1561      H1571   1.083       .  S
C1562      H1572   1.083       .  S
C1573      C1574   1.405       .  A
C1573      C1578   1.406   1_655  A
C1574      C1575   1.406       .  A
C1574      H1587   1.083       .  S
C1575      C1576   1.408   1_655  A
C1575      H1588   1.083       .  S
C1576      C1577   1.406       .  A
C1576      C1579   1.497       .  S
C1577      C1578   1.398       .  A
C1577      H1589   1.082       .  S
C1578      H1590   1.084       .  S
C1579      C1580   1.354       .  D
C1579      H1591   1.085       .  S
C1580      C1581   1.497       .  S
C1580      H1592   1.086       .  S
C1581      C1582   1.407       .  A
C1581      C1586   1.409       .  A
C1582      C1583   1.401       .  A
C1582      H1593   1.083       .  S
C1583      C1584   1.402       .  A
C1583      H1594   1.083       .  S
C1584      C1585   1.406       .  A
C1585      C1586   1.406       .  A
C1585      H1595   1.083       .  S
C1586      H1596   1.081       .  S
C1597      C1598   1.405       .  A
C1597      C1602   1.404       .  A
C1598      C1599   1.405       .  A
C1598      H1611   1.082       .  S
C1599      C1600   1.405       .  A
C1599      H1612   1.084       .  S
C1600      C1601   1.404       .  A
C1600      C1603   1.485       .  S
C1601      C1602   1.392       .  A
C1601      H1613   1.083       .  S
C1602      H1614   1.083       .  S
C1603      C1604   1.350   1_545  D
C1603      H1615   1.083       .  S
C1604      C1605   1.489       .  S
C1604      H1616   1.087       .  S
C1605      C1606   1.405       .  A
C1605      C1610   1.409       .  A
C1606      C1607   1.395       .  A
C1606      H1617   1.083       .  S
C1607      C1608   1.400       .  A
C1607      H1618   1.083       .  S
C1608      C1609   1.403       .  A
C1609      C1610   1.401       .  A
C1609      H1619   1.083       .  S
C1610      H1620   1.079   1_565  S
C1621      C1622   1.407       .  A
C1621      C1626   1.408       .  A
C1622      C1623   1.401       .  A
C1622      H1635   1.082       .  S
C1623      C1624   1.406       .  A
C1623      H1636   1.083       .  S
C1624      C1625   1.409       .  A
C1624      C1627   1.497       .  S
C1625      C1626   1.401       .  A
C1625      H1637   1.080       .  S
C1626      H1638   1.081       .  S
C1627      C1628   1.352       .  D
C1627      H1639   1.084       .  S
C1628      C1629   1.494       .  S
C1628      H1640   1.083       .  S
C1629      C1630   1.406       .  A
C1629      C1634   1.410       .  A
C1630      C1631   1.400       .  A
C1630      H1641   1.084       .  S
C1631      C1632   1.403       .  A
C1631      H1642   1.082       .  S
C1632      C1633   1.405       .  A
C1633      C1634   1.402       .  A
C1633      H1643   1.082       .  S
C1634      H1644   1.080       .  S
C1645      C1646   1.406       .  A
C1645      C1650   1.410       .  A
C1646      C1647   1.396       .  A
C1646      H1659   1.079       .  S
C1647      C1648   1.402       .  A
C1647      H1660   1.084       .  S
C1648      C1649   1.409       .  A
C1648      C1651   1.492       .  S
C1649      C1650   1.406       .  A
C1649      H1661   1.081       .  S
C1650      H1662   1.082       .  S
C1651      C1652   1.349       .  D
C1651      H1663   1.085       .  S
C1652      C1653   1.493       .  S
C1652      H1664   1.085       .  S
C1653      C1654   1.406       .  A
C1653      C1658   1.409       .  A
C1654      C1655   1.402       .  A
C1654      H1665   1.083       .  S
C1655      C1656   1.402       .  A
C1655      H1666   1.081       .  S
C1656      C1657   1.401       .  A
C1657      C1658   1.398       .  A
C1657      H1667   1.083       .  S
C1658      H1668   1.082       .  S
C1669      C1670   1.407       .  A
C1669      C1674   1.408       .  A
C1670      C1671   1.399       .  A
C1670      H1683   1.081       .  S
C1671      C1672   1.402       .  A
C1671      H1684   1.084       .  S
C1672      C1673   1.409       .  A
C1672      C1675   1.493       .  S
C1673      C1674   1.404       .  A
C1673      H1685   1.082       .  S
C1674      H1686   1.082       .  S
C1675      C1676   1.349       .  D
C1675      H1687   1.085       .  S
C1676      C1677   1.493       .  S
C1676      H1688   1.086       .  S
C1677      C1678   1.404       .  A
C1677      C1682   1.411       .  A
C1678      C1679   1.397       .  A
C1678      H1689   1.083       .  S
C1679      C1680   1.403       .  A
C1679      H1690   1.083       .  S
C1680      C1681   1.405       .  A
C1681      C1682   1.406       .  A
C1681      H1691   1.082       .  S
C1682      H1692   1.082       .  S
C1693      C1694   1.407       .  A
C1693      C1698   1.406       .  A
C1694      C1695   1.409       .  A
C1694      H1707   1.082       .  S
C1695      C1696   1.407       .  A
C1695      H1708   1.083       .  S
C1696      C1697   1.403       .  A
C1696      C1699   1.489       .  S
C1697      C1698   1.392       .  A
C1697      H1709   1.083       .  S
C1698      H1710   1.083       .  S
C1699      C1700   1.352       .  D
C1699      H1711   1.085       .  S
C1700      C1701   1.491       .  S
C1700      H1712   1.087       .  S
C1701      C1702   1.407       .  A
C1701      C1706   1.407       .  A
C1702      C1703   1.400   1_655  A
C1702      H1713   1.083       .  S
C1703      C1704   1.401       .  A
C1703      H1714   1.082       .  S
C1704      C1705   1.406   1_455  A
C1705      C1706   1.401       .  A
C1705      H1715   1.083       .  S
C1706      H1716   1.081       .  S
C1717      C1718   1.404       .  A
C1717      C1722   1.405       .  A
C1718      C1719   1.401       .  A
C1718      H1731   1.081       .  S
C1719      C1720   1.404       .  A
C1719      H1732   1.084       .  S
C1720      C1721   1.406       .  A
C1720      C1723   1.487       .  S
C1721      C1722   1.398       .  A
C1721      H1733   1.082       .  S
C1722      H1734   1.083       .  S
C1723      C1724   1.351       .  D
C1723      H1735   1.085       .  S
C1724      C1725   1.490       .  S
C1724      H1736   1.086       .  S
C1725      C1726   1.406       .  A
C1725      C1730   1.407       .  A
C1726      C1727   1.401       .  A
C1726      H1737   1.084       .  S
C1727      C1728   1.404       .  A
C1727      H1738   1.083       .  S
C1728      C1729   1.405       .  A
C1729      C1730   1.398       .  A
C1729      H1739   1.084       .  S
C1730      H1740   1.081       .  S
C1741      C1742   1.403       .  A
C1741      C1746   1.403       .  A
C1742      C1743   1.398       .  A
C1742      H1755   1.083       .  S
C1743      C1744   1.403       .  A
C1743      H1756   1.082       .  S
C1744      C1745   1.410       .  A
C1744      C1747   1.489       .  S
C1745      C1746   1.402       .  A
C1745      H1757   1.082       .  S
C1746      H1758   1.082       .  S
C1747      C1748   1.348       .  D
C1747      H1759   1.085       .  S
C1748      C1749   1.489       .  S
C1748      H1760   1.086       .  S
C1749      C1750   1.402       .  A
C1749      C1754   1.411       .  A
C1750      C1751   1.397       .  A
C1750      H1761   1.084       .  S
C1751      C1752   1.405       .  A
C1751      H1762   1.083       .  S
C1752      C1753   1.404       .  A
C1753      C1754   1.404       .  A
C1753      H1763   1.084       .  S
C1754      H1764   1.081       .  S
C1765      C1766   1.403       .  A
C1765      C1770   1.407       .  A
C1766      C1767   1.400       .  A
C1766      H1779   1.083       .  S
C1767      C1768   1.407       .  A
C1767      H1780   1.084       .  S
C1768      C1769   1.407       .  A
C1768      C1771   1.491       .  S
C1769      C1770   1.401       .  A
C1769      H1781   1.082       .  S
C1770      H1782   1.083       .  S
C1771      C1772   1.350       .  D
C1771      H1783   1.088       .  S
C1772      C1773   1.488       .  S
C1772      H1784   1.085       .  S
C1773      C1774   1.406       .  A
C1773      C1778   1.404       .  A
C1774      C1775   1.406       .  A
C1774      H1785   1.083       .  S
C1775      C1776   1.407       .  A
C1775      H1786   1.083       .  S
C1776      C1777   1.405       .  A
C1777      C1778   1.394       .  A
C1777      H1787   1.083       .  S
C1778      H1788   1.083       .  S
C1789      C1790   1.402       .  A
C1789      C1794   1.407       .  A
C1790      C1791   1.401       .  A
C1790      H1803   1.083       .  S
C1791      C1792   1.408       .  A
C1791      H1804   1.083       .  S
C1792      C1793   1.406       .  A
C1792      C1795   1.491       .  S
C1793      C1794   1.399       .  A
C1793      H1805   1.082       .  S
C1794      H1806   1.083       .  S
C1795      C1796   1.354       .  D
C1795      H1807   1.084       .  S
C1796      C1797   1.496       .  S
C1796      H1808   1.085       .  S
C1797      C1798   1.409       .  A
C1797      C1802   1.408       .  A
C1798      C1799   1.406       .  A
C1798      H1809   1.083       .  S
C1799      C1800   1.404       .  A
C1799      H1810   1.083       .  S
C1800      C1801   1.402       .  A
C1801      C1802   1.395       .  A
C1801      H1811   1.083       .  S
C1802      H1812   1.080       .  S
C1813      C1814   1.404       .  A
C1813      C1818   1.401       .  A
C1814      C1815   1.399       .  A
C1814      H1827   1.083       .  S
C1815      C1816   1.408       .  A
C1815      H1828   1.081       .  S
C1816      C1817   1.408       .  A
C1816      C1819   1.494       .  S
C1817      C1818   1.403       .  A
C1817      H1829   1.083       .  S
C1818      H1830   1.083       .  S
C1819      C1820   1.354       .  D
C1819      H1831   1.084       .  S
C1820      C1821   1.494       .  S
C1820      H1832   1.084       .  S
C1821      C1822   1.407       .  A
C1821      C1826   1.408       .  A
C1822      C1823   1.401       .  A
C1822      H1833   1.084       .  S
C1823      C1824   1.402       .  A
C1823      H1834   1.081       .  S
C1824      C1825   1.403       .  A
C1825      C1826   1.400       .  A
C1825      H1835   1.083       .  S
C1826      H1836   1.081       .  S
C1837      C1838   1.406       .  A
C1837      C1842   1.409       .  A
C1838      C1839   1.397       .  A
C1838      H1851   1.080   1_545  S
C1839      C1840   1.402       .  A
C1839      H1852   1.083       .  S
C1840      C1841   1.408       .  A
C1840      C1843   1.490       .  S
C1841      C1842   1.404       .  A
C1841      H1853   1.082       .  S
C1842      H1854   1.081       .  S
C1843      C1844   1.350       .  D
C1843      H1855   1.083       .  S
C1844      C1845   1.496       .  S
C1844      H1856   1.085       .  S
C1845      C1846   1.406       .  A
C1845      C1850   1.412       .  A
C1846      C1847   1.401       .  A
C1846      H1857   1.083       .  S
C1847      C1848   1.404       .  A
C1847      H1858   1.083       .  S
C1848      C1849   1.402       .  A
C1849      C1850   1.400       .  A
C1849      H1859   1.082       .  S
C1850      H1860   1.080       .  S
C1861      C1862   1.405       .  A
C1861      C1866   1.407       .  A
C1862      C1863   1.397       .  A
C1862      H1875   1.082       .  S
C1863      C1864   1.402       .  A
C1863      H1876   1.084       .  S
C1864      C1865   1.408       .  A
C1864      C1867   1.487       .  S
C1865      C1866   1.404       .  A
C1865      H1877   1.082       .  S
C1866      H1878   1.083       .  S
C1867      C1868   1.348       .  D
C1867      H1879   1.087       .  S
C1868      C1869   1.489       .  S
C1868      H1880   1.087       .  S
C1869      C1870   1.405       .  A
C1869      C1874   1.406       .  A
C1870      C1871   1.403       .  A
C1870      H1881   1.083       .  S
C1871      C1872   1.406       .  A
C1871      H1882   1.082       .  S
C1872      C1873   1.403       .  A
C1873      C1874   1.397       .  A
C1873      H1883   1.082       .  S
C1874      H1884   1.082       .  S
C1885      C1886   1.404       .  A
C1885      C1890   1.404       .  A
C1886      C1887   1.403       .  A
C1886      H1899   1.082       .  S
C1887      C1888   1.407       .  A
C1887      H1900   1.083       .  S
C1888      C1889   1.408       .  A
C1888      C1891   1.492       .  S
C1889      C1890   1.397       .  A
C1889      H1901   1.081       .  S
C1890      H1902   1.083       .  S
C1891      C1892   1.350       .  D
C1891      H1903   1.086       .  S
C1892      C1893   1.491       .  S
C1892      H1904   1.086       .  S
C1893      C1894   1.403   1_655  A
C1893      C1898   1.408       .  A
C1894      C1895   1.400       .  A
C1894      H1905   1.084       .  S
C1895      C1896   1.407   1_455  A
C1895      H1906   1.081       .  S
C1896      C1897   1.409       .  A
C1897      C1898   1.404       .  A
C1897      H1907   1.082       .  S
C1898      H1908   1.082       .  S
C1909      C1910   1.402       .  A
C1909      C1914   1.406       .  A
C1910      C1911   1.400       .  A
C1910      H1923   1.083       .  S
C1911      C1912   1.407       .  A
C1911      H1924   1.083       .  S
C1912      C1913   1.407       .  A
C1912      C1915   1.489       .  S
C1913      C1914   1.399       .  A
C1913      H1925   1.082   1_565  S
C1914      H1926   1.083       .  S
C1915      C1916   1.350   1_565  D
C1915      H1927   1.087       .  S
C1916      C1917   1.487       .  S
C1916      H1928   1.085       .  S
C1917      C1918   1.405       .  A
C1917      C1922   1.403       .  A
C1918      C1919   1.406       .  A
C1918      H1929   1.082       .  S
C1919      C1920   1.407       .  A
C1919      H1930   1.079       .  S
C1920      C1921   1.407       .  A
C1921      C1922   1.393       .  A
C1921      H1931   1.082       .  S
C1922      H1932   1.083       .  S
C1933      C1934   1.408       .  A
C1933      C1938   1.405       .  A
C1934      C1935   1.408       .  A
C1934      H1947   1.082       .  S
C1935      C1936   1.406       .  A
C1935      H1948   1.083       .  S
C1936      C1937   1.404       .  A
C1936      C1939   1.491       .  S
C1937      C1938   1.392       .  A
C1937      H1949   1.083       .  S
C1938      H1950   1.083       .  S
C1939      C1940   1.351       .  D
C1939      H1951   1.083       .  S
C1940      C1941   1.492       .  S
C1940      H1952   1.087       .  S
C1941      C1942   1.405       .  A
C1941      C1946   1.410       .  A
C1942      C1943   1.395       .  A
C1942      H1953   1.083       .  S
C1943      C1944   1.400       .  A
C1943      H1954   1.083       .  S
C1944      C1945   1.405       .  A
C1945      C1946   1.405       .  A
C1945      H1955   1.083       .  S
C1946      H1956   1.080       .  S
C1957      C1958   1.403       .  A
C1957      C1962   1.403       .  A
C1958      C1959   1.396   1_455  A
C1958      H1971   1.084       .  S
C1959      C1960   1.404   1_655  A
C1959      H1972   1.083       .  S
C1960      C1961   1.413       .  A
C1960      C1963   1.495   1_455  S
C1961      C1962   1.404       .  A
C1961      H1973   1.081       .  S
C1962      H1974   1.082       .  S
C1963      C1964   1.348       .  D
C1963      H1975   1.084       .  S
C1964      C1965   1.494       .  S
C1964      H1976   1.084   1_655  S
C1965      C1966   1.403       .  A
C1965      C1970   1.413       .  A
C1966      C1967   1.397       .  A
C1966      H1977   1.084   1_655  S
C1967      C1968   1.404       .  A
C1967      H1978   1.083       .  S
C1968      C1969   1.401       .  A
C1969      C1970   1.403       .  A
C1969      H1979   1.081       .  S
C1970      H1980   1.081       .  S
C1981      C1982   1.407       .  A
C1981      C1986   1.408       .  A
C1982      C1983   1.400       .  A
C1982      H1995   1.080       .  S
C1983      C1984   1.403       .  A
C1983      H1996   1.083       .  S
C1984      C1985   1.409       .  A
C1984      C1987   1.494       .  S
C1985      C1986   1.403       .  A
C1985      H1997   1.080       .  S
C1986      H1998   1.081       .  S
C1987      C1988   1.350       .  D
C1987      H1999   1.085       .  S
C1988      C1989   1.493       .  S
C1988      H2000   1.084       .  S
C1989      C1990   1.404       .  A
C1989      C1994   1.410       .  A
C1990      C1991   1.398       .  A
C1990      H2001   1.083       .  S
C1991      C1992   1.404       .  A
C1991      H2002   1.083       .  S
C1992      C1993   1.405       .  A
C1993      C1994   1.403       .  A
C1993      H2003   1.082       .  S
C1994      H2004   1.081       .  S
C2005      C2006   1.401       .  A
C2005      C2010   1.400       .  A
C2006      C2007   1.400       .  A
C2006      H2019   1.082       .  S
C2007      C2008   1.405       .  A
C2007      H2020   1.084       .  S
C2008      C2009   1.410       .  A
C2008      C2011   1.489       .  S
C2009      C2010   1.398       .  A
C2009      H2021   1.082       .  S
C2010      H2022   1.084       .  S
C2011      C2012   1.347       .  D
C2011      H2023   1.086       .  S
C2012      C2013   1.487       .  S
C2012      H2024   1.085       .  S
C2013      C2014   1.401       .  A
C2013      C2018   1.407       .  A
C2014      C2015   1.396       .  A
C2014      H2025   1.083       .  S
C2015      C2016   1.406       .  A
C2015      H2026   1.080       .  S
C2016      C2017   1.409       .  A
C2017      C2018   1.403       .  A
C2017      H2027   1.082       .  S
C2018      H2028   1.082       .  S
C2029      C2030   1.401       .  A
C2029      C2034   1.402       .  A
C2030      C2031   1.399       .  A
C2030      H2043   1.082       .  S
C2031      C2032   1.404       .  A
C2031      H2044   1.083       .  S
C2032      C2033   1.408       .  A
C2032      C2035   1.485       .  S
C2033      C2034   1.396       .  A
C2033      H2045   1.082       .  S
C2034      H2046   1.083       .  S
C2035      C2036   1.346       .  D
C2035      H2047   1.085       .  S
C2036      C2037   1.487       .  S
C2036      H2048   1.086       .  S
C2037      C2038   1.402       .  A
C2037      C2042   1.408       .  A
C2038      C2039   1.396       .  A
C2038      H2049   1.083       .  S
C2039      C2040   1.406       .  A
C2039      H2050   1.081       .  S
C2040      C2041   1.407       .  A
C2041      C2042   1.402       .  A
C2041      H2051   1.082       .  S
C2042      H2052   1.081       .  S
C2053      C2054   1.402       .  A
C2053      C2058   1.406       .  A
C2054      C2055   1.402       .  A
C2054      H2067   1.081       .  S
C2055      C2056   1.407       .  A
C2055      H2068   1.084       .  S
C2056      C2057   1.406       .  A
C2056      C2059   1.490       .  S
C2057      C2058   1.396       .  A
C2057      H2069   1.081       .  S
C2058      H2070   1.083       .  S
C2059      C2060   1.352       .  D
C2059      H2071   1.083       .  S
C2060      C2061   1.493       .  S
C2060      H2072   1.085       .  S
C2061      C2062   1.408       .  A
C2061      C2066   1.408       .  A
C2062      C2063   1.402       .  A
C2062      H2073   1.084       .  S
C2063      C2064   1.403       .  A
C2063      H2074   1.082       .  S
C2064      C2065   1.404       .  A
C2065      C2066   1.396       .  A
C2065      H2075   1.083       .  S
C2066      H2076   1.080       .  S
C2077      C2078   1.406       .  A
C2077      C2082   1.407       .  A
C2078      C2079   1.408       .  A
C2078      H2091   1.080       .  S
C2079      C2080   1.406       .  A
C2079      H2092   1.082       .  S
C2080      C2081   1.401       .  A
C2080      C2083   1.484       .  S
C2081      C2082   1.391       .  A
C2081      H2093   1.083       .  S
C2082      H2094   1.083       .  S
C2083      C2084   1.349       .  D
C2083      H2095   1.085       .  S
C2084      C2085   1.487       .  S
C2084      H2096   1.088       .  S
C2085      C2086   1.406       .  A
C2085      C2090   1.406       .  A
C2086      C2087   1.400       .  A
C2086      H2097   1.083       .  S
C2087      C2088   1.403       .  A
C2087      H2098   1.083       .  S
C2088      C2089   1.405       .  A
C2089      C2090   1.399       .  A
C2089      H2099   1.083       .  S
C2090      H2100   1.082       .  S
C2101      C2102   1.401       .  A
C2101      C2106   1.404       .  A
C2102      C2103   1.399       .  A
C2102      H2115   1.082       .  S
C2103      C2104   1.406       .  A
C2103      H2116   1.084       .  S
C2104      C2105   1.408   1_455  A
C2104      C2107   1.490   1_455  S
C2105      C2106   1.399   1_655  A
C2105      H2117   1.081       .  S
C2106      H2118   1.084       .  S
C2107      C2108   1.351       .  D
C2107      H2119   1.085   1_655  S
C2108      C2109   1.491       .  S
C2108      H2120   1.085       .  S
C2109      C2110   1.405       .  A
C2109      C2114   1.408       .  A
C2110      C2111   1.399       .  A
C2110      H2121   1.083       .  S
C2111      C2112   1.401       .  A
C2111      H2122   1.080       .  S
C2112      C2113   1.405       .  A
C2113      C2114   1.400       .  A
C2113      H2123   1.084       .  S
C2114      H2124   1.081       .  S
C2125      C2126   1.406       .  A
C2125      C2130   1.405       .  A
C2126      C2127   1.399       .  A
C2126      H2139   1.081       .  S
C2127      C2128   1.403       .  A
C2127      H2140   1.083       .  S
C2128      C2129   1.407       .  A
C2128      C2131   1.487       .  S
C2129      C2130   1.397       .  A
C2129      H2141   1.082       .  S
C2130      H2142   1.084       .  S
C2131      C2132   1.348       .  D
C2131      H2143   1.086       .  S
C2132      C2133   1.485       .  S
C2132      H2144   1.086       .  S
C2133      C2134   1.402       .  A
C2133      C2138   1.407       .  A
C2134      C2135   1.396       .  A
C2134      H2145   1.083       .  S
C2135      C2136   1.403       .  A
C2135      H2146   1.078       .  S
C2136      C2137   1.406       .  A
C2137      C2138   1.399       .  A
C2137      H2147   1.084       .  S
C2138      H2148   1.082       .  S
C2149      C2150   1.404       .  A
C2149      C2154   1.406       .  A
C2150      C2151   1.402       .  A
C2150      H2163   1.083       .  S
C2151      C2152   1.407       .  A
C2151      H2164   1.083       .  S
C2152      C2153   1.407       .  A
C2152      C2155   1.492       .  S
C2153      C2154   1.398       .  A
C2153      H2165   1.080       .  S
C2154      H2166   1.083       .  S
C2155      C2156   1.352       .  D
C2155      H2167   1.085       .  S
C2156      C2157   1.490       .  S
C2156      H2168   1.084       .  S
C2157      C2158   1.405       .  A
C2157      C2162   1.406       .  A
C2158      C2159   1.402       .  A
C2158      H2169   1.083       .  S
C2159      C2160   1.404       .  A
C2159      H2170   1.079       .  S
C2160      C2161   1.405       .  A
C2161      C2162   1.398       .  A
C2161      H2171   1.083       .  S
C2162      H2172   1.081       .  S
C2173      C2174   1.406   1_565  A
C2173      C2178   1.406       .  A
C2174      C2175   1.408       .  A
C2174      H2187   1.082       .  S
C2175      C2176   1.407   1_545  A
C2175      H2188   1.083       .  S
C2176      C2177   1.405       .  A
C2176      C2179   1.492       .  S
C2177      C2178   1.395       .  A
C2177      H2189   1.083       .  S
C2178      H2190   1.083       .  S
C2179      C2180   1.351       .  D
C2179      H2191   1.084       .  S
C2180      C2181   1.494       .  S
C2180      H2192   1.087       .  S
C2181      C2182   1.406       .  A
C2181      C2186   1.409       .  A
C2182      C2183   1.397       .  A
C2182      H2193   1.084       .  S
C2183      C2184   1.401       .  A
C2183      H2194   1.083       .  S
C2184      C2185   1.406       .  A
C2185      C2186   1.405       .  A
C2185      H2195   1.083       .  S
C2186      H2196   1.081       .  S
C2197      C2198   1.406       .  A
C2197      C2202   1.406       .  A
C2198      C2199   1.398       .  A
C2198      H2211   1.082       .  S
C2199      C2200   1.402       .  A
C2199      H2212   1.084       .  S
C2200      C2201   1.408       .  A
C2200      C2203   1.487       .  S
C2201      C2202   1.403       .  A
C2201      H2213   1.082       .  S
C2202      H2214   1.083       .  S
C2203      C2204   1.347       .  D
C2203      H2215   1.087       .  S
C2204      C2205   1.488       .  S
C2204      H2216   1.086       .  S
C2205      C2206   1.404       .  A
C2205      C2210   1.406       .  A
C2206      C2207   1.402       .  A
C2206      H2217   1.083       .  S
C2207      C2208   1.405       .  A
C2207      H2218   1.076       .  S
C2208      C2209   1.407       .  A
C2209      C2210   1.399       .  A
C2209      H2219   1.082       .  S
C2210      H2220   1.082       .  S
C2221      C2222   1.409       .  A
C2221      C2226   1.408       .  A
C2222      C2223   1.402       .  A
C2222      H2235   1.082       .  S
C2223      C2224   1.404       .  A
C2223      H2236   1.083       .  S
C2224      C2225   1.407       .  A
C2224      C2227   1.492       .  S
C2225      C2226   1.400       .  A
C2225      H2237   1.082   1_455  S
C2226      H2238   1.081   1_455  S
C2227      C2228   1.350       .  D
C2227      H2239   1.085       .  S
C2228      C2229   1.492       .  S
C2228      H2240   1.085       .  S
C2229      C2230   1.406       .  A
C2229      C2234   1.410       .  A
C2230      C2231   1.398       .  A
C2230      H2241   1.082       .  S
C2231      C2232   1.400       .  A
C2231      H2242   1.083       .  S
C2232      C2233   1.402       .  A
C2233      C2234   1.401       .  A
C2233      H2243   1.082       .  S
C2234      H2244   1.081       .  S
C2245      C2246   1.406       .  A
C2245      C2250   1.407       .  A
C2246      C2247   1.400       .  A
C2246      H2259   1.082       .  S
C2247      C2248   1.405       .  A
C2247      H2260   1.084       .  S
C2248      C2249   1.409       .  A
C2248      C2251   1.496       .  S
C2249      C2250   1.403       .  A
C2249      H2261   1.081       .  S
C2250      H2262   1.082       .  S
C2251      C2252   1.351       .  D
C2251      H2263   1.085       .  S
C2252      C2253   1.496       .  S
C2252      H2264   1.085       .  S
C2253      C2254   1.405       .  A
C2253      C2258   1.412       .  A
C2254      C2255   1.400       .  A
C2254      H2265   1.083       .  S
C2255      C2256   1.402       .  A
C2255      H2266   1.082       .  S
C2256      C2257   1.402       .  A
C2257      C2258   1.405       .  A
C2257      H2267   1.082       .  S
C2258      H2268   1.081       .  S
