geometry optimzed in LAMMPS
_audit_creation_date              2020-12-01 
_audit_creation_method            'lammps2cif' 
_symmetry_space_group_name_H-M    'P1' 
_symmetry_Int_Tables_number       1 
_symmetry_cell_setting            triclinic 
loop_ 
_symmetry_equiv_pos_as_xyz 
  x,y,z 
_cell_length_a                    53.74040854 
_cell_length_b                    38.804696102333764 
_cell_length_c                    34.868827637944214 
_cell_angle_alpha                 90.14489540977003 
_cell_angle_beta                  90.20266838963167 
_cell_angle_gamma                 89.81180699966461 
loop_ 
_atom_site_label 
_atom_site_type_symbol 
_atom_site_fract_x 
_atom_site_fract_y 
_atom_site_fract_z 
_atom_site_charge 
O1          O  0.55973152  0.52552605  0.01740402    -0.71800
O2          O  0.63440943  0.52898009  0.01962019    -0.72800
O3          O  0.59713785  0.55683271  0.97136480    -0.61400
O4          O  0.59776251  0.49748760  0.06580030    -0.69800
O5          O  0.59896775  0.45052535  0.02968457    -0.69400
O6          O  0.59899607  0.50955256  0.93580923    -0.60600
O7          O  0.63586012  0.48126205  0.98446895    -0.73100
O8          O  0.56142492  0.47853301  0.98104690    -0.71900
Cu9        Cu  0.59707962  0.52886170  0.01984705     1.04600
Cu10       Cu  0.59874998  0.47840233  0.98146353     1.04300
C11         C  0.54882255  0.50151014  0.99874116     0.94400
C12         C  0.64689132  0.50540925  0.00266664     0.93500
C13         C  0.59868310  0.54240545  0.93847239     0.85700
C14         C  0.59919913  0.46466793  0.06278671     0.92000
O15         O  0.47195185  0.49101325  0.06133493    -0.71800
O16         O  0.47018679  0.54987660  0.96713134    -0.72800
O17         O  0.43432020  0.51761979  0.01387446    -0.61400
O18         O  0.50880848  0.52310983  0.01516464    -0.69800
O19         O  0.51075207  0.47577500  0.97940041    -0.69400
O20         O  0.43626454  0.47106437  0.97696331    -0.60600
O21         O  0.47250118  0.50308290  0.93094086    -0.73100
O22         O  0.47342151  0.44389151  0.02545273    -0.71900
Cu23       Cu  0.47141501  0.52204429  0.01559514     1.04600
Cu24       Cu  0.47349023  0.47184194  0.97689485     1.04300
C25         C  0.47175076  0.45818067  0.05841811     0.94400
C26         C  0.47013771  0.53578786  0.93397053     0.93500
C27         C  0.42352445  0.49342191  0.99538716     0.85700
C28         C  0.52153492  0.50011609  0.99768993     0.92000
C29         C  0.43700673  0.62375927  0.73065515     0.87600
C30         C  0.43133125  0.66166053  0.73945476    -0.52600
C31         C  0.44506066  0.67546172  0.76879747     0.10600
C32         C  0.46326581  0.64933555  0.78724597     0.21500
C33         C  0.46543083  0.62227471  0.72449466    -0.53300
C34         C  0.47909782  0.63602220  0.75379812     0.10700
C35         C  0.43379562  0.60471333  0.76904041    -0.52900
C36         C  0.44783201  0.61753385  0.79852220     0.11200
H37         H  0.41860732  0.67685922  0.72206308     0.15800
H38         H  0.47439892  0.66026166  0.81119045     0.01500
H39         H  0.47411654  0.61012105  0.69984484     0.16100
H40         H  0.42395703  0.58055605  0.77188878     0.15900
C41         C  0.43687429  0.37938708  0.26295965     0.87600
C42         C  0.42942889  0.34152565  0.25645970    -0.52600
C43         C  0.44234672  0.32524203  0.22793023     0.10600
C44         C  0.46142199  0.34849163  0.20791627     0.21500
C45         C  0.46526179  0.37679217  0.26985525    -0.53300
C46         C  0.47808183  0.36109453  0.24081064     0.10700
C47         C  0.43419732  0.39663383  0.22374442    -0.52900
C48         C  0.44743562  0.38116175  0.19510778     0.11200
H49         H  0.41819363  0.32687832  0.27630564     0.15800
H50         H  0.47175667  0.33525551  0.18457809     0.01500
H51         H  0.47449717  0.38694950  0.29518448     0.16100
H52         H  0.42452479  0.42101026  0.21981129     0.15900
N53         N  0.37890250  0.48766668  0.43723035    -0.26100
N54         N  0.35734910  0.48156668  0.42017468    -0.34000
C55         C  0.36129630  0.46381002  0.38766355     0.02200
C56         C  0.38658713  0.45830593  0.38375643     0.08200
C57         C  0.39724404  0.47399155  0.41564642    -0.04900
H58         H  0.34669523  0.45532174  0.36847581     0.08900
H59         H  0.41673411  0.47441351  0.42325231     0.10100
Cu60       Cu  0.32300187  0.49479819  0.44225077     0.44200
Cu61       Cu  0.38178993  0.51261321  0.49022025     0.42000
Cu62       Cu  0.32202119  0.52869266  0.53715507     0.43900
N63         N  0.29044458  0.50318653  0.47215183    -0.33500
N64         N  0.29013929  0.51438965  0.50794313    -0.27800
C65         C  0.26653634  0.51479007  0.52055244    -0.03900
C66         C  0.25129085  0.50355993  0.49106850     0.08300
C67         C  0.26702071  0.49657653  0.46073284     0.02100
H68         H  0.26087598  0.52298052  0.54890892     0.09800
H69         H  0.26190839  0.48662346  0.43278636     0.08900
N70         N  0.35612190  0.54254834  0.55998177    -0.35000
N71         N  0.37784829  0.53713567  0.54327950    -0.27100
C72         C  0.39595029  0.54979531  0.56611194    -0.02400
C73         C  0.38502628  0.56365508  0.59873864     0.06200
C74         C  0.35977223  0.55859095  0.59369348     0.04300
H75         H  0.41557006  0.54852555  0.55969231     0.09400
H76         H  0.34499185  0.56641751  0.61281468     0.08300
C77         C  0.43721129  0.87755832  0.73245744     0.87600
C78         C  0.43456085  0.89578990  0.77127334    -0.52600
C79         C  0.44867399  0.88207750  0.79999898     0.10600
C80         C  0.46367718  0.85011600  0.78778372     0.21500
C81         C  0.46544620  0.87663478  0.72479894    -0.53300
C82         C  0.47925530  0.86288777  0.75391877     0.10700
C83         C  0.43112148  0.83933018  0.74053387    -0.52900
C84         C  0.44500811  0.82477325  0.76941935     0.11200
H85         H  0.42395467  0.91946130  0.77490642     0.15800
H86         H  0.47490517  0.83880532  0.81141705     0.01500
H87         H  0.47386426  0.88702378  0.69904374     0.16100
H88         H  0.41934517  0.82354565  0.72252326     0.15900
C89         C  0.43895775  0.12251515  0.26605650     0.87600
C90         C  0.43589620  0.10600545  0.22610810    -0.52600
C91         C  0.44962707  0.12122601  0.19788492     0.10600
C92         C  0.46451746  0.15266261  0.21186385     0.21500
C93         C  0.46741215  0.12165124  0.27211290    -0.53300
C94         C  0.48073802  0.13771535  0.24412204     0.10700
C95         C  0.43259585  0.16061730  0.26063031    -0.52900
C96         C  0.44594517  0.17654649  0.23258947     0.11200
H97         H  0.42693293  0.08139898  0.22127588     0.15800
H98         H  0.47528553  0.16545148  0.18883692     0.01500
H99         H  0.47635206  0.10889563  0.29617547     0.16100
H100        H  0.41972739  0.17442839  0.27913013     0.15900
N101        N  0.37933963  0.98501503  0.55790737    -0.26100
N102        N  0.35751929  0.97797299  0.57337516    -0.34000
C103        C  0.36098634  0.95999083  0.60583204     0.02200
C104        C  0.38624439  0.95547710  0.61141944     0.08200
C105        C  0.39737660  0.97186752  0.58058446    -0.04900
H106        H  0.34612903  0.95077058  0.62389965     0.08900
H107        H  0.41702565  0.97305736  0.57439686     0.10100
Cu108      Cu  0.32363657  0.99152952  0.54979822     0.44200
Cu109      Cu  0.38307384  0.00986350  0.50505148     0.42000
Cu110      Cu  0.32394421  0.03035889  0.45751755     0.43900
N111        N  0.29155870  0.00570622  0.52124945    -0.33500
N112        N  0.29160403  0.01996205  0.48693581    -0.27800
C113        C  0.26799719  0.02534927  0.47558377    -0.03900
C114        C  0.25232089  0.01387912  0.50427130     0.08300
C115        C  0.26795106  0.00161745  0.53280280     0.02100
H116        H  0.26272245  0.03685398  0.44851341     0.09800
H117        H  0.26263103  0.98973257  0.55955660     0.08900
N118        N  0.35846709  0.03886609  0.43369376    -0.35000
N119        N  0.37999191  0.03225747  0.45069316    -0.27100
C120        C  0.39848861  0.04262578  0.42743500    -0.02400
C121        C  0.38799848  0.05618932  0.39425832     0.06200
C122        C  0.36261920  0.05328375  0.39935583     0.04300
H123        H  0.41804987  0.04059940  0.43425981     0.09400
H124        H  0.34812432  0.06218752  0.38020716     0.08300
O125        O  0.63451719  0.97551658  0.01555875    -0.71800
O126        O  0.55954310  0.97490810  0.01779788    -0.72800
O127        O  0.59713450  0.94618053  0.96876483    -0.61400
O128        O  0.59810776  0.00404502  0.06476848    -0.69800
O129        O  0.59783888  0.05145293  0.02963863    -0.69400
O130        O  0.59579344  0.99370010  0.93388917    -0.60600
O131        O  0.55915498  0.02282583  0.98318330    -0.73100
O132        O  0.63332517  0.02249891  0.97944157    -0.71900
Cu133      Cu  0.59718770  0.97347826  0.01801731     1.04600
Cu134      Cu  0.59633154  0.02422924  0.98040568     1.04300
C135        C  0.64566180  0.99902349  0.99666657     0.94400
C136        C  0.54756132  0.99891414  0.00063763     0.93500
C137        C  0.59738067  0.96087826  0.93599072     0.85700
C138        C  0.59913220  0.03690176  0.06244849     0.92000
O139        O  0.47082851  0.00811594  0.06459046    -0.71800
O140        O  0.46955581  0.94755291  0.97078803    -0.72800
O141        O  0.50807318  0.97604878  0.01829061    -0.61400
O142        O  0.43320077  0.97936015  0.01758027    -0.69800
O143        O  0.43418418  0.02550977  0.98032544    -0.69400
O144        O  0.50874253  0.02314484  0.98233046    -0.60600
O145        O  0.47094354  0.99423869  0.93455700    -0.73100
O146        O  0.47119035  0.05469495  0.02810725    -0.71900
Cu147      Cu  0.47051661  0.97614259  0.01912712     1.04600
Cu148      Cu  0.47144212  0.02596676  0.98007256     1.04300
C149        C  0.47038334  0.04094528  0.06131997     0.94400
C150        C  0.46921023  0.96151343  0.93761152     0.93500
C151        C  0.52019734  0.99931118  0.00051791     0.85700
C152        C  0.42185465  0.00279150  0.99859227     0.92000
C153        C  0.62805310  0.87560264  0.72922376     0.87600
C154        C  0.63446922  0.83814076  0.73888391    -0.52600
C155        C  0.62118390  0.82477783  0.76866635     0.10600
C156        C  0.60277111  0.85059707  0.78664144     0.21500
C157        C  0.59958558  0.87624998  0.72347928    -0.53300
C158        C  0.58647972  0.86265415  0.75309927     0.10700
C159        C  0.63138347  0.89567747  0.76714445    -0.52900
C160        C  0.61793035  0.88283868  0.79716742     0.11200
H161        H  0.64722893  0.82281959  0.72173246     0.15800
H162        H  0.59196904  0.83984985  0.81086937     0.01500
H163        H  0.59023408  0.88858717  0.69955060     0.16100
H164        H  0.64167713  0.91961456  0.76932858     0.15900
C165        C  0.62972983  0.12360174  0.26752925     0.87600
C166        C  0.63675894  0.16110687  0.25786772    -0.52600
C167        C  0.62315334  0.17528268  0.22853180     0.10600
C168        C  0.60388127  0.15037897  0.21110652     0.21500
C169        C  0.60155642  0.12620107  0.27517969    -0.53300
C170        C  0.58805458  0.13943195  0.24544757     0.10700
C171        C  0.63188212  0.10385211  0.22964041    -0.52900
C172        C  0.61807366  0.11719794  0.20032013     0.11200
H173        H  0.64827831  0.17720773  0.27603352     0.15800
H174        H  0.59278739  0.16143978  0.18715633     0.01500
H175        H  0.59287347  0.11765350  0.30156506     0.16100
H176        H  0.64218322  0.07982649  0.22700883     0.15900
N177        N  0.77655740  0.98517436  0.51243485    -0.26100
N178        N  0.77618565  0.00328127  0.48046313    -0.34000
C179        C  0.79958231  0.01113681  0.47055369     0.02200
C180        C  0.81542534  0.99732482  0.49780822     0.08200
C181        C  0.80021577  0.98106856  0.52398754    -0.05700
H182        H  0.80459332  0.02603336  0.44557509     0.08900
H183        H  0.80588908  0.96678778  0.54918102     0.10100
Cu184      Cu  0.74390772  0.01629428  0.45237036     0.44200
Cu185      Cu  0.74483133  0.96725954  0.53832883     0.42000
Cu186      Cu  0.68524757  0.99255372  0.49587816     0.43900
N187        N  0.70978760  0.02789409  0.42906843    -0.33500
N188        N  0.68817959  0.01977318  0.44450227    -0.27800
C189        C  0.66984737  0.03231123  0.42199004    -0.03900
C190        C  0.68060403  0.04922853  0.39114340     0.08300
C191        C  0.70593643  0.04563494  0.39664025     0.02100
H192        H  0.65024799  0.03001556  0.42813817     0.09800
H193        H  0.72064666  0.05509216  0.37845574     0.08900
N194        N  0.68908501  0.96411041  0.54634540    -0.35000
N195        N  0.71077673  0.95481658  0.56109575    -0.27100
C196        C  0.70703897  0.93694151  0.59346480    -0.02400
C197        C  0.68172114  0.93478055  0.59970678     0.06200
C198        C  0.67088551  0.95227537  0.56918389     0.04300
H199        H  0.72178910  0.92611538  0.61087366     0.09400
H200        H  0.65127954  0.95662355  0.56424737     0.08300
C201        C  0.62868546  0.62482989  0.73251317     0.87600
C202        C  0.63173777  0.60619492  0.77128831    -0.52600
C203        C  0.61776568  0.61995341  0.80028101     0.10600
C204        C  0.60226546  0.65138730  0.78814857     0.21500
C205        C  0.60030897  0.62353354  0.72578814    -0.53300
C206        C  0.58653893  0.63769273  0.75464247     0.10700
C207        C  0.63439437  0.66269241  0.74086633    -0.52900
C208        C  0.62063561  0.67682872  0.76977998     0.11200
H209        H  0.64140282  0.58187233  0.77487308     0.15800
H210        H  0.59108354  0.66270124  0.81177470     0.01500
H211        H  0.59175635  0.61114931  0.70111344     0.16100
H212        H  0.64728801  0.67757245  0.72367622     0.15900
C213        C  0.62670570  0.37530512  0.26683171     0.87600
C214        C  0.62923212  0.39583645  0.22968156    -0.52600
C215        C  0.61622179  0.38268883  0.19936754     0.10600
C216        C  0.60234845  0.34899097  0.20857682     0.21500
C217        C  0.59835469  0.37217109  0.27308771    -0.53300
C218        C  0.58555095  0.35893946  0.24243540     0.10700
C219        C  0.63438205  0.33817252  0.25640447    -0.52900
C220        C  0.62156629  0.32412549  0.22628680     0.11200
H221        H  0.63919025  0.42012372  0.22820528     0.15800
H222        H  0.59219454  0.33766492  0.18382468     0.01500
H223        H  0.58913433  0.38061694  0.29912335     0.16100
H224        H  0.64536672  0.32180612  0.27508792     0.15900
N225        N  0.68511663  0.47448204  0.44905071    -0.26100
N226        N  0.70643627  0.46168744  0.43654381    -0.34000
C227        C  0.70228626  0.44309178  0.40469895     0.02200
C228        C  0.67703753  0.44351408  0.39647744     0.08200
C229        C  0.66674177  0.46385765  0.42538050    -0.04900
H230        H  0.71694600  0.43087888  0.38838747     0.08900
H231        H  0.64734419  0.47023302  0.42930671     0.10100
Cu232      Cu  0.74098138  0.46924518  0.46161933     0.44200
Cu233      Cu  0.68235349  0.50634025  0.49746875     0.42000
Cu234      Cu  0.74223596  0.52376066  0.54266986     0.43900
N235        N  0.77384119  0.48323683  0.48847828    -0.33500
N236        N  0.77407276  0.50444388  0.51812868    -0.27800
C237        C  0.79769123  0.51149943  0.52777820    -0.03900
C238        C  0.81314870  0.49367323  0.50312490     0.08300
C239        C  0.79745474  0.47577896  0.47864747     0.02100
H240        H  0.80319257  0.52861769  0.55085830     0.09800
H241        H  0.80277490  0.45969000  0.45459899     0.08900
N242        N  0.70881800  0.54146532  0.56347967    -0.35000
N243        N  0.68690222  0.53595958  0.54729204    -0.27100
C244        C  0.66923966  0.55074893  0.56929502    -0.02400
C245        C  0.68071839  0.56584866  0.60086891     0.06200
C246        C  0.70578874  0.55947671  0.59602570     0.04300
H247        H  0.64950609  0.54942640  0.56356974     0.09400
H248        H  0.72082988  0.56707309  0.61487291     0.08300
O249        O  0.13308703  0.47420435  0.51843306    -0.71800
O250        O  0.05824254  0.47531027  0.52538665    -0.72800
O251        O  0.09438844  0.44559321  0.47375122    -0.61400
O252        O  0.09814163  0.50386604  0.56955000    -0.69800
O253        O  0.09638392  0.55124264  0.53397118    -0.69400
O254        O  0.09310751  0.49306862  0.43878520    -0.60600
O255        O  0.05711917  0.52259945  0.48975366    -0.73100
O256        O  0.13164626  0.52158113  0.48313183    -0.71900
Cu257      Cu  0.09584139  0.47306264  0.52304930     1.04600
Cu258      Cu  0.09438645  0.52372290  0.48521686     1.04300
C259        C  0.14417509  0.49764222  0.49937924     0.94400
C260        C  0.04590455  0.49936032  0.50892112     0.93500
C261        C  0.09442924  0.46022976  0.44091053     0.85700
C262        C  0.09836637  0.53668706  0.56662630     0.92000
O263        O  0.96896886  0.49347888  0.44666291    -0.71800
O264        O  0.96831213  0.55393016  0.54101983    -0.72800
O265        O  0.00651759  0.52383086  0.49367941    -0.61400
O266        O  0.93189744  0.52380201  0.49278585    -0.69800
O267        O  0.93199104  0.47646325  0.52836010    -0.69400
O268        O  0.00696096  0.47725681  0.53049242    -0.60600
O269        O  0.96825491  0.50697783  0.57685188    -0.73100
O270        O  0.96961123  0.44689552  0.48366049    -0.71900
Cu271      Cu  0.96910628  0.52546960  0.49233782     1.04600
Cu272      Cu  0.96936835  0.47540786  0.53126266     1.04300
C273        C  0.96845846  0.46073482  0.45060502     0.94400
C274        C  0.96707221  0.53977063  0.57406462     0.93500
C275        C  0.01853900  0.50023464  0.51138061     0.85700
C276        C  0.92018088  0.49962788  0.50960146     0.92000
C277        C  0.93527715  0.62824660  0.77887857     0.87600
C278        C  0.93273432  0.60756890  0.74149649    -0.52600
C279        C  0.94645403  0.62009411  0.71160744     0.10600
C280        C  0.96089244  0.65320937  0.72153955     0.21500
C281        C  0.96357731  0.63031159  0.78616992    -0.53300
C282        C  0.97676220  0.64280225  0.75605588     0.10700
C283        C  0.92836829  0.66552019  0.76789866    -0.52900
C284        C  0.94195658  0.67881608  0.73836448     0.11200
H285        H  0.92214209  0.58383371  0.73962511     0.15800
H286        H  0.97210783  0.66369466  0.69757825     0.01500
H287        H  0.97257572  0.62187666  0.81247903     0.16100
H288        H  0.91710278  0.68244241  0.78541089     0.15900
C289        C  0.93861225  0.38053771  0.24688030     0.87600
C290        C  0.93665987  0.39646706  0.28736028    -0.52600
C291        C  0.95114678  0.38051320  0.31441022     0.10600
C292        C  0.96611890  0.34966738  0.29875982     0.21500
C293        C  0.96672772  0.38152053  0.23894624    -0.53300
C294        C  0.98106652  0.36529868  0.26569905     0.10700
C295        C  0.93262155  0.34227581  0.25232933    -0.52900
C296        C  0.94705677  0.32593696  0.27899443     0.11200
H297        H  0.92763691  0.42062931  0.29398116     0.15800
H298        H  0.97774149  0.33656653  0.32075970     0.01500
H299        H  0.97466933  0.39422438  0.21412591     0.16100
H300        H  0.91946355  0.32852987  0.23421879     0.15900
N301        N  0.85900810  0.46296923  0.07679067    -0.26100
N302        N  0.88077714  0.47095108  0.06161432    -0.34000
C303        C  0.89899074  0.45816356  0.08417628     0.02200
C304        C  0.88802767  0.44195853  0.11511305     0.08200
C305        C  0.86274457  0.44552352  0.10952199    -0.04900
H306        H  0.91865411  0.46164692  0.07929673     0.08900
H307        H  0.84811248  0.43647310  0.12809003     0.10100
Cu308      Cu  0.88487248  0.50169246  0.01302645     0.44200
Cu309      Cu  0.82468574  0.47647627  0.05448488     0.42000
Cu310      Cu  0.82618016  0.53556403  0.97763255     0.43900
N311        N  0.88175669  0.53457845  0.96597738    -0.33500
N312        N  0.86014711  0.54672715  0.95381816    -0.27800
C313        C  0.86364155  0.56564890  0.92222508    -0.03900
C314        C  0.88874801  0.56583714  0.91373869     0.08300
C315        C  0.89972944  0.54580446  0.94224218     0.02100
H316        H  0.84866450  0.57705154  0.90573001     0.09800
H317        H  0.91922184  0.53949257  0.94534777     0.08900
N318        N  0.79345762  0.51780983  0.00052191    -0.35000
N319        N  0.79277766  0.49491560  0.02841515    -0.27100
C320        C  0.76893742  0.48706911  0.03580222    -0.02400
C321        C  0.75396245  0.50625049  0.01145976     0.06200
C322        C  0.77013641  0.52548336  0.98952832     0.04300
H323        H  0.76296688  0.46904021  0.05753700     0.09400
H324        H  0.76536818  0.54315740  0.96664954     0.08300
C325        C  0.93851292  0.88059040  0.76820217     0.87600
C326        C  0.93117097  0.84321246  0.76106026    -0.52600
C327        C  0.94413992  0.82728631  0.73246228     0.10600
C328        C  0.96269697  0.85107947  0.71193235     0.21500
C329        C  0.96709011  0.87982817  0.77353789    -0.53300
C330        C  0.97959317  0.86409882  0.74425562     0.10700
C331        C  0.93531828  0.89868133  0.72928734    -0.52900
C332        C  0.94822034  0.88369256  0.69991174     0.11200
H333        H  0.91856274  0.82939662  0.77981930     0.15800
H334        H  0.97297792  0.83830054  0.68822344     0.01500
H335        H  0.97676100  0.89185456  0.79742502     0.16100
H336        H  0.92654768  0.92370505  0.72598095     0.15900
C337        C  0.94126693  0.12621577  0.23160340     0.87600
C338        C  0.93403259  0.16345433  0.24216236    -0.52600
C339        C  0.94748320  0.17733008  0.27171204     0.10600
C340        C  0.96700567  0.15240328  0.28854929     0.21500
C341        C  0.96944551  0.12908132  0.22391704    -0.53300
C342        C  0.98285404  0.14201378  0.25392803     0.10700
C343        C  0.93938214  0.10580651  0.26903161    -0.52900
C344        C  0.95308711  0.11897670  0.29872447     0.11200
H345        H  0.92212930  0.17950452  0.22442492     0.15800
H346        H  0.97811181  0.16332897  0.31256669     0.01500
H347        H  0.97826005  0.12150560  0.19722410     0.16100
H348        H  0.92907127  0.08186706  0.27119136     0.15900
N349        N  0.87879493  0.03229467  0.05029074    -0.26100
N350        N  0.85731064  0.04113261  0.06585354    -0.34000
C351        C  0.86163921  0.05879058  0.09839776     0.02200
C352        C  0.88715368  0.06150681  0.10374627     0.08200
C353        C  0.89736729  0.04443498  0.07241121    -0.04900
H354        H  0.84710269  0.06813460  0.11711022     0.08900
H355        H  0.91683200  0.04108532  0.06585704     0.10100
Cu356      Cu  0.82284101  0.02959455  0.04247948     0.44200
Cu357      Cu  0.88224245  0.00297918  0.00046863     0.42000
Cu358      Cu  0.82408683  0.98649495  0.95197786     0.43900
N359        N  0.79111843  0.01761773  0.01143220    -0.33500
N360        N  0.79176466  0.00282281  0.97730751    -0.27800
C361        C  0.76843739  0.99752404  0.96479506    -0.03900
C362        C  0.75231182  0.00921534  0.99268364     0.08300
C363        C  0.76726907  0.02185375  0.02184182     0.02100
H364        H  0.76364134  0.98440562  0.93836878     0.09800
H365        H  0.76128714  0.03265167  0.04894488     0.08900
N366        N  0.85774057  0.96810452  0.93329203    -0.35000
N367        N  0.87926406  0.97372593  0.95054364    -0.27100
C368        C  0.89743570  0.95874473  0.92976116    -0.02400
C369        C  0.88664449  0.94323138  0.89788540     0.06200
C370        C  0.86145810  0.94954047  0.90138008     0.04300
H371        H  0.91702546  0.96016370  0.93657130     0.09400
H372        H  0.84678527  0.94155749  0.88206447     0.08300
O373        O  0.13274750  0.03255709  0.52328083    -0.71800
O374        O  0.05820343  0.03009682  0.52007937    -0.72800
O375        O  0.09574168  0.00015718  0.56726696    -0.61400
O376        O  0.09607156  0.06291217  0.47547159    -0.69800
O377        O  0.09612722  0.01689964  0.43771837    -0.69400
O378        O  0.09813012  0.95437764  0.52951840    -0.60600
O379        O  0.05963634  0.98330592  0.48335270    -0.73100
O380        O  0.13397791  0.98779573  0.48354299    -0.71900
Cu381      Cu  0.09549640  0.03303995  0.52285354     1.04600
Cu382      Cu  0.09689594  0.98403842  0.48218521     1.04300
C383        C  0.14509478  0.01063618  0.50362100     0.94400
C384        C  0.04718942  0.00599615  0.50171343     0.93500
C385        C  0.09779955  0.96750896  0.56317266     0.85700
C386        C  0.09677788  0.04964704  0.44188409     0.92000
O387        O  0.93330276  0.02369635  0.51928355    -0.71800
O388        O  0.00752295  0.02750411  0.51933281    -0.72800
O389        O  0.96920344  0.05464800  0.47126348    -0.61400
O390        O  0.97075377  0.99597672  0.56650612    -0.69800
O391        O  0.97126626  0.94890915  0.53050779    -0.69400
O392        O  0.97126253  0.00738139  0.43579455    -0.60600
O393        O  0.00894362  0.97973527  0.48420045    -0.73100
O394        O  0.93443430  0.97728347  0.48188096    -0.71900
Cu395      Cu  0.97028544  0.02709834  0.52036963     1.04600
Cu396      Cu  0.97165732  0.97667158  0.48189078     1.04300
C397        C  0.92218868  0.00011245  0.50038736     0.94400
C398        C  0.01996120  0.00431599  0.50175003     0.93500
C399        C  0.96944395  0.04014982  0.43825724     0.85700
C400        C  0.97016983  0.96310938  0.56355970     0.92000
C401        C  0.12524065  0.62536147  0.77113674     0.87600
C402        C  0.13202550  0.66270800  0.76021498    -0.52600
C403        C  0.11820807  0.67641156  0.73071194     0.10600
C404        C  0.09836686  0.65109552  0.71530608     0.21500
C405        C  0.09730195  0.62807871  0.78014323    -0.53300
C406        C  0.08332537  0.64100256  0.75093370     0.10700
C407        C  0.12657800  0.60486462  0.73354120    -0.52900
C408        C  0.11248063  0.61790472  0.70427116     0.11200
H409        H  0.14427214  0.67870914  0.77722299     0.15800
H410        H  0.08692455  0.66134422  0.69146283     0.01500
H411        H  0.08907697  0.61995798  0.80703890     0.16100
H412        H  0.13676373  0.58073887  0.73123190     0.15900
C413        C  0.12935148  0.38366296  0.23361617     0.87600
C414        C  0.13685689  0.34607440  0.23945038    -0.52600
C415        C  0.12363484  0.32918102  0.26691918     0.10600
C416        C  0.10462931  0.35232616  0.28781866     0.21500
C417        C  0.10085672  0.38301477  0.22747121    -0.53300
C418        C  0.08805543  0.36640914  0.25569595     0.10700
C419        C  0.13187035  0.40061226  0.27345534    -0.52900
C420        C  0.11856717  0.38469533  0.30175842     0.11200
H421        H  0.15031269  0.33315437  0.22114889     0.15800
H422        H  0.09407849  0.33913710  0.31079361     0.01500
H423        H  0.09148285  0.39569110  0.20373632     0.16100
H424        H  0.14036438  0.42558304  0.27809587     0.15900
N425        N  0.18948816  0.47342977  0.04999410    -0.26100
N426        N  0.21111266  0.46632421  0.06630580    -0.34000
C427        C  0.20723206  0.45044207  0.09992784     0.02200
C428        C  0.18186560  0.44715994  0.10514336     0.08200
C429        C  0.17114765  0.46198809  0.07285275    -0.04900
H430        H  0.22186514  0.44112864  0.11860122     0.08900
H431        H  0.15153792  0.46440882  0.06652193     0.10100
Cu432      Cu  0.24496760  0.47663773  0.04140134     0.44200
Cu433      Cu  0.18658141  0.49808654  0.99716605     0.42000
Cu434      Cu  0.24518101  0.51236290  0.94614030     0.43900
N435        N  0.27695691  0.48547980  0.01066112    -0.33500
N436        N  0.27721530  0.49744970  0.97522275    -0.27800
C437        C  0.30097863  0.49987777  0.96353930    -0.03900
C438        C  0.31629096  0.48921857  0.99329099     0.08300
C439        C  0.30042784  0.48030434  0.02267919     0.02100
H440        H  0.30669698  0.50979237  0.93599137     0.09800
H441        H  0.30551620  0.47076737  0.05076333     0.08900
N442        N  0.21059740  0.52886367  0.92656124    -0.35000
N443        N  0.18942961  0.52354062  0.94483673    -0.27100
C444        C  0.17071725  0.53785603  0.92459625    -0.02400
C445        C  0.18055679  0.55313224  0.89214883     0.06200
C446        C  0.20590874  0.54689432  0.89440314     0.04300
H447        H  0.15144551  0.53766475  0.93325671     0.09400
H448        H  0.21993772  0.55453705  0.87399727     0.08300
C449        C  0.12819356  0.87691925  0.76579135     0.87600
C450        C  0.13120907  0.89638252  0.72789518    -0.52600
C451        C  0.11753368  0.88366547  0.69803691     0.10600
C452        C  0.10296428  0.85093400  0.70824723     0.21500
C453        C  0.09986578  0.87516865  0.77235003    -0.53300
C454        C  0.08670240  0.86200714  0.74217483     0.10700
C455        C  0.13494045  0.83915165  0.75618312    -0.52900
C456        C  0.12174730  0.82527143  0.72610734     0.11200
H457        H  0.14189682  0.92001043  0.72576082     0.15800
H458        H  0.09221626  0.84041935  0.68371421     0.01500
H459        H  0.09091392  0.88436829  0.79832569     0.16100
H460        H  0.14619258  0.82290397  0.77446875     0.15900
C461        C  0.13220124  0.12431439  0.23661733     0.87600
C462        C  0.13409875  0.10875033  0.27726106    -0.52600
C463        C  0.12010372  0.12561813  0.30426343     0.10600
C464        C  0.10570607  0.15681921  0.28839457     0.21500
C465        C  0.10393442  0.12423443  0.22894552    -0.53300
C466        C  0.09012067  0.14126757  0.25577968     0.10700
C467        C  0.13893551  0.16235294  0.24161299    -0.52900
C468        C  0.12483494  0.17970733  0.26791110     0.11200
H469        H  0.14228418  0.08389690  0.28359947     0.15800
H470        H  0.09446104  0.17041830  0.31042836     0.01500
H471        H  0.09552689  0.11136530  0.20445564     0.16100
H472        H  0.15255202  0.17511366  0.22363981     0.15900
N473        N  0.20937084  0.03674224  0.06629880    -0.26100
N474        N  0.18749290  0.03216623  0.04959704    -0.34000
C475        C  0.16969032  0.04461478  0.07312377     0.02200
C476        C  0.18104642  0.05719573  0.10616856     0.08200
C477        C  0.20616452  0.05171225  0.10071141    -0.04900
H478        H  0.15001408  0.04444198  0.06675831     0.08900
H479        H  0.22113100  0.05899059  0.11982062     0.10100
Cu480      Cu  0.18342208  0.00899624  0.99541220     0.44200
Cu481      Cu  0.24313799  0.02472410  0.04177877     0.42000
Cu482      Cu  0.24253694  0.99005235  0.94728265     0.43900
N483        N  0.18634366  0.98364508  0.94228409    -0.33500
N484        N  0.20787092  0.97659957  0.92562955    -0.27800
C485        C  0.20371945  0.95838269  0.89340344    -0.03900
C486        C  0.17836656  0.95370236  0.88913914     0.08300
C487        C  0.16787088  0.97028066  0.92056175     0.02100
H488        H  0.21820090  0.94903946  0.87454412     0.09800
H489        H  0.14836302  0.97147560  0.92777448     0.08900
N490        N  0.27515097  0.00190939  0.97637262    -0.35000
N491        N  0.27521233  0.01370859  0.01192753    -0.27100
C492        C  0.29881811  0.01701310  0.02414727    -0.02400
C493        C  0.31440879  0.00704714  0.99469340     0.06200
C494        C  0.29881943  0.99774647  0.96473520     0.04300
H495        H  0.30420486  0.02612687  0.05231288     0.09400
H496        H  0.30425671  0.98777586  0.93698615     0.08300
C497        C  0.16591350  0.08287089  0.20873443     0.24800
C498        C  0.14662511  0.10736221  0.20346430    -0.23400
C499        C  0.14071498  0.11707660  0.16533923     0.19700
C500        C  0.15139874  0.10019974  0.13395595     0.24700
C501        C  0.16933398  0.07442543  0.13952379    -0.23300
C502        C  0.17699764  0.06661210  0.17710389     0.19600
F503        F  0.19513364  0.04280935  0.18334286    -0.13300
F504        F  0.17529639  0.07566223  0.24392197    -0.15600
F505        F  0.14479610  0.10998217  0.09796094    -0.15600
F506        F  0.12438463  0.14310986  0.15828250    -0.13300
C507        C  0.16396033  0.88351486  0.81611654     0.24800
C508        C  0.14178785  0.89574413  0.79871116    -0.23400
C509        C  0.13263596  0.92831344  0.81086303     0.19700
C510        C  0.14411120  0.94665561  0.84067008     0.24700
C511        C  0.16562080  0.93376024  0.85845158    -0.23300
C512        C  0.17550980  0.90220762  0.84565090     0.19600
F513        F  0.19647176  0.88914447  0.86197727    -0.13300
F514        F  0.17568077  0.85467283  0.80370115    -0.15600
F515        F  0.13472831  0.97784050  0.85101396    -0.15600
F516        F  0.11265167  0.94294666  0.79326213    -0.13300
C517        C  0.12181653  0.23616180  0.23407176     0.24800
C518        C  0.12391032  0.21798357  0.26877241    -0.23400
C519        C  0.12436763  0.23656031  0.30346688     0.19700
C520        C  0.12403703  0.27281074  0.30322784     0.24700
C521        C  0.12316541  0.29086024  0.26830225    -0.23300
C522        C  0.12135821  0.27203656  0.23383579     0.19600
F523        F  0.11841255  0.28836593  0.19969651    -0.13300
F524        F  0.11946011  0.21913777  0.20017104    -0.15600
F525        F  0.12525234  0.29018775  0.33697239    -0.15600
F526        F  0.12581421  0.21968845  0.33744263    -0.13300
C527        C  0.13627950  0.39356436  0.16195987     0.24800
C528        C  0.14365736  0.40009552  0.20033575    -0.23400
C529        C  0.16576677  0.41911067  0.20623900     0.19700
C530        C  0.17808808  0.43441496  0.17537050     0.24700
C531        C  0.16910546  0.43047623  0.13772598    -0.23300
C532        C  0.14841293  0.40930881  0.13126628     0.19600
F533        F  0.14054034  0.40255024  0.09497712    -0.13300
F534        F  0.11770726  0.37105257  0.15376369    -0.15600
F535        F  0.19878063  0.45339244  0.18250297    -0.15600
F536        F  0.17647573  0.42159246  0.24140012    -0.13300
C537        C  0.14271052  0.73149447  0.72323292     0.24800
C538        C  0.11983815  0.71392797  0.72031971    -0.23400
C539        C  0.09838261  0.73347028  0.71157459     0.19700
C540        C  0.09913259  0.76954702  0.71153653     0.24700
C541        C  0.12158807  0.78718818  0.71862003    -0.23300
C542        C  0.14357070  0.76758018  0.72238350     0.19600
F543        F  0.16595141  0.78335389  0.72631003    -0.13300
F544        F  0.16435445  0.71374268  0.72750556    -0.15600
F545        F  0.07730228  0.78681412  0.70747847    -0.15600
F546        F  0.07613929  0.71824226  0.70506043    -0.13300
C547        C  0.14368840  0.55971064  0.84871511     0.24800
C548        C  0.16684637  0.57176122  0.86154249    -0.23400
C549        C  0.17707459  0.60103716  0.84407483     0.19700
C550        C  0.16415678  0.61849036  0.81499543     0.24700
C551        C  0.14022956  0.60747677  0.80308944    -0.23300
C552        C  0.13087311  0.57674434  0.81937963     0.19600
F553        F  0.10942137  0.56244371  0.80628225    -0.13300
F554        F  0.13382234  0.53044435  0.86345142    -0.15600
F555        F  0.17613765  0.64463780  0.79730809    -0.15600
F556        F  0.19965340  0.61307762  0.85529544    -0.13300
C557        C  0.11174415  0.10406285  0.40975795     0.24800
C558        C  0.09970791  0.07180146  0.40744741    -0.23400
C559        C  0.09273597  0.05919604  0.37109237     0.19700
C560        C  0.09909915  0.07709158  0.33785936     0.24700
C561        C  0.11239457  0.10814511  0.34008762    -0.23300
C562        C  0.11795934  0.12210947  0.37624919     0.19600
F563        F  0.13034644  0.15244194  0.37906004    -0.13300
F564        F  0.11864210  0.11734990  0.44423075    -0.15600
F565        F  0.09243445  0.06384453  0.30327431    -0.15600
F566        F  0.07992816  0.02923958  0.36758892    -0.13300
C567        C  0.10529632  0.90936599  0.59417454     0.24800
C568        C  0.10097638  0.94519145  0.59764679    -0.23400
C569        C  0.10127443  0.95996608  0.63461882     0.19700
C570        C  0.10661196  0.93994572  0.66682099     0.24700
C571        C  0.11209018  0.90457356  0.66317247    -0.23300
C572        C  0.11079256  0.88932676  0.62662123     0.19600
F573        F  0.11545006  0.85515563  0.62209893    -0.13300
F574        F  0.10462592  0.89363709  0.55936637    -0.15600
F575        F  0.10571057  0.95523711  0.70186478    -0.15600
F576        F  0.09651556  0.99402467  0.63997526    -0.13300
C577        C  0.02341549  0.17264311  0.26296596     0.24800
C578        C  0.01027606  0.14240111  0.25423459    -0.23400
C579        C  0.02340346  0.11186234  0.24648822     0.19700
C580        C  0.04931194  0.11156463  0.24697795     0.24700
C581        C  0.06261026  0.14190810  0.25505348    -0.23300
C582        C  0.04946305  0.17247155  0.26313479     0.19600
F583        F  0.06178342  0.20234387  0.27010124    -0.13300
F584        F  0.01105977  0.20247190  0.27038164    -0.15600
F585        F  0.06134023  0.08126530  0.24068236    -0.15600
F586        F  0.01108012  0.08195634  0.23963480    -0.13300
C587        C  0.93683831  0.08084261  0.17862878     0.24800
C588        C  0.92662927  0.10925750  0.19870182    -0.23400
C589        C  0.90205969  0.11936840  0.18924736     0.19700
C590        C  0.88951014  0.10445494  0.15813981     0.24700
C591        C  0.90057209  0.07782115  0.13653615    -0.23300
C592        C  0.92426593  0.06591609  0.14764244     0.19600
F593        F  0.93507853  0.03872973  0.12960963    -0.13300
F594        F  0.95881514  0.06649478  0.18953403    -0.15600
F595        F  0.86648907  0.11652844  0.14923086    -0.15600
F596        F  0.88933714  0.14236351  0.21107370    -0.13300
C597        C  0.96853995  0.04520486  0.36622558     0.24800
C598        C  0.96674166  0.06104037  0.40260013    -0.23400
C599        C  0.96109291  0.09658761  0.40426297     0.19700
C600        C  0.95678458  0.11543913  0.37058842     0.24700
C601        C  0.95782881  0.09924813  0.33458140    -0.23300
C602        C  0.96416742  0.06406265  0.33275444     0.19600
F603        F  0.96670938  0.04791441  0.29837699    -0.13300
F604        F  0.97453981  0.01131856  0.36272910    -0.15600
F605        F  0.95080642  0.14935159  0.37331081    -0.15600
F606        F  0.95917008  0.11314356  0.43846677    -0.13300
C607        C  0.01990475  0.87352960  0.71061496     0.24800
C608        C  0.00695829  0.86169057  0.74289192    -0.23400
C609        C  0.02028803  0.84801292  0.77404918     0.19700
C610        C  0.04627017  0.84716047  0.77341549     0.24700
C611        C  0.05925123  0.86026315  0.74172656    -0.23300
C612        C  0.04584021  0.87288910  0.71005428     0.19600
F613        F  0.05775743  0.88613565  0.67920941    -0.13300
F614        F  0.00757201  0.88716335  0.68021850    -0.15600
F615        F  0.05874818  0.83313076  0.80351359    -0.15600
F616        F  0.00810456  0.83506238  0.80483688    -0.13300
C617        C  0.93224274  0.88967316  0.84022799     0.24800
C618        C  0.92435238  0.89613115  0.80211836    -0.23400
C619        C  0.90187715  0.91452306  0.79681860     0.19700
C620        C  0.88989876  0.93003758  0.82783346     0.24700
C621        C  0.89922332  0.92617129  0.86529444    -0.23300
C622        C  0.92015919  0.90517320  0.87129510     0.19600
F623        F  0.92843955  0.89859289  0.90738613    -0.13300
F624        F  0.95122572  0.86750497  0.84776658    -0.15600
F625        F  0.86929816  0.94938913  0.82083853    -0.15600
F626        F  0.89055746  0.91636457  0.76205095    -0.13300
C627        C  0.96324056  0.93746771  0.66791858     0.24800
C628        C  0.95446323  0.90340593  0.66481075    -0.23400
C629        C  0.95304663  0.88800795  0.62847288     0.19700
C630        C  0.95906823  0.90687501  0.59554952     0.24700
C631        C  0.96679208  0.94158917  0.59845424    -0.23300
C632        C  0.96932994  0.95629626  0.63522109     0.19600
F633        F  0.97779927  0.98898742  0.63977418    -0.13300
F634        F  0.96661714  0.95236696  0.70283701    -0.15600
F635        F  0.95655230  0.89135223  0.56083030    -0.15600
F636        F  0.94512188  0.85498549  0.62474899    -0.13300
C637        C  0.02219242  0.33496811  0.27024664     0.24800
C638        C  0.00850645  0.36532396  0.26384518    -0.23400
C639        C  0.02114850  0.39607085  0.25553134     0.19700
C640        C  0.04697036  0.39627465  0.25248762     0.24700
C641        C  0.06065006  0.36575772  0.25778773    -0.23300
C642        C  0.04812798  0.33517398  0.26716830     0.19600
F643        F  0.06093912  0.30533632  0.27247799    -0.13300
F644        F  0.01047070  0.30495242  0.27843611    -0.15600
F645        F  0.05865403  0.42663516  0.24579293    -0.15600
F646        F  0.00854833  0.42627031  0.25168959    -0.13300
C647        C  0.94109773  0.26844871  0.31132880     0.24800
C648        C  0.94882914  0.28786505  0.27955666    -0.23400
C649        C  0.95741366  0.27075658  0.24663004     0.19700
C650        C  0.95764625  0.23488379  0.24491376     0.24700
C651        C  0.94916264  0.21526662  0.27603298    -0.23300
C652        C  0.94124253  0.23220403  0.30955160     0.19600
F653        F  0.93268901  0.21375561  0.33974083    -0.13300
F654        F  0.93245715  0.28454039  0.34324583    -0.15600
F655        F  0.96588078  0.21917418  0.21247876    -0.15600
F656        F  0.96531649  0.28896260  0.21579103    -0.13300
C657        C  0.90532874  0.42220266  0.21789989     0.24800
C658        C  0.92387092  0.39646252  0.21349158    -0.23400
C659        C  0.92915779  0.38484001  0.17578812     0.19700
C660        C  0.91803517  0.40023494  0.14385611     0.24700
C661        C  0.90040752  0.42644903  0.14864311    -0.23300
C662        C  0.89386630  0.43692648  0.18576967     0.19600
F663        F  0.87650829  0.46200538  0.19097809    -0.13300
F664        F  0.89710387  0.43255523  0.25270916    -0.15600
F665        F  0.92401073  0.38882969  0.10819872    -0.15600
F666        F  0.94541519  0.35851182  0.16972354    -0.13300
C667        C  0.01671756  0.61154942  0.74917364     0.24800
C668        C  0.00400394  0.64266992  0.75528241    -0.23400
C669        C  0.01733875  0.67329154  0.76058009     0.19700
C670        C  0.04332591  0.67270685  0.76020554     0.24700
C671        C  0.05603705  0.64182401  0.75259499    -0.23300
C672        C  0.04264119  0.61115198  0.74759621     0.19600
F673        F  0.05472035  0.58088901  0.74122707    -0.13300
F674        F  0.00395935  0.58168871  0.74440886    -0.15600
F675        F  0.05602949  0.70186430  0.76883166    -0.15600
F676        F  0.00522634  0.70349949  0.76686358    -0.13300
C677        C  0.95138144  0.73597701  0.76727907     0.24800
C678        C  0.94479482  0.71666171  0.73465648    -0.23400
C679        C  0.94045614  0.73381271  0.69977266     0.19700
C680        C  0.94108579  0.77003234  0.69829840     0.24700
C681        C  0.94605818  0.78919464  0.73169309    -0.23300
C682        C  0.95208595  0.77174916  0.76578721     0.19600
F683        F  0.95846100  0.78946739  0.79799143    -0.13300
F684        F  0.95699872  0.72011866  0.80092527    -0.15600
F685        F  0.93580599  0.78636485  0.66486714    -0.15600
F686        F  0.93456773  0.71566773  0.66772314    -0.13300
C687        C  0.89986240  0.62561887  0.82947395     0.24800
C688        C  0.92162545  0.61158873  0.81275651    -0.23400
C689        C  0.93125581  0.58074472  0.82862064     0.19700
C690        C  0.92114589  0.56651165  0.86189875     0.24700
C691        C  0.90044242  0.58183044  0.87961596    -0.23300
C692        C  0.88986739  0.61141021  0.86282106     0.19600
F693        F  0.86978888  0.62709513  0.87879164    -0.13300
F694        F  0.88696018  0.65170849  0.81293344    -0.15600
F695        F  0.93127705  0.53704484  0.87597358    -0.15600
F696        F  0.95067741  0.56414063  0.81183692    -0.13300
C697        C  0.94024344  0.42942071  0.40673109     0.24800
C698        C  0.96457384  0.43862277  0.41707360    -0.23400
C699        C  0.98470646  0.42610925  0.39576365     0.19700
C700        C  0.98049272  0.40535715  0.36349399     0.24700
C701        C  0.95600342  0.39718440  0.35204374    -0.23300
C702        C  0.93596087  0.40893142  0.37440499     0.19600
F703        F  0.91219593  0.40094886  0.36455475    -0.13300
F704        F  0.92059560  0.44089710  0.42761733    -0.15600
F705        F  0.00031264  0.39489322  0.34248808    -0.15600
F706        F  0.00835433  0.43459219  0.40576274    -0.13300
C707        C  0.96278866  0.54528059  0.64575922     0.24800
C708        C  0.96305962  0.56100313  0.60930348    -0.23400
C709        C  0.95775870  0.59661545  0.60698927     0.19700
C710        C  0.95208301  0.61569961  0.64008239     0.24700
C711        C  0.95142179  0.59971965  0.67617428    -0.23300
C712        C  0.95710491  0.56436448  0.67863898     0.19600
F713        F  0.95790670  0.54823623  0.71314264    -0.13300
F714        F  0.96802178  0.51123601  0.64993618    -0.15600
F715        F  0.94657873  0.64969926  0.63662545    -0.15600
F716        F  0.95751019  0.61302737  0.57265703    -0.13300
C717        C  0.10249859  0.43750148  0.33557293     0.24800
C718        C  0.11124303  0.40328779  0.33743761    -0.23400
C719        C  0.11183543  0.38672028  0.37315023     0.19700
C720        C  0.10524191  0.40457844  0.40669281     0.24700
C721        C  0.09776573  0.43950227  0.40514847    -0.23300
C722        C  0.09595691  0.45539903  0.36890753     0.19600
F723        F  0.08809126  0.48854574  0.36548461    -0.13300
F724        F  0.09989688  0.45366177  0.30127884    -0.15600
F725        F  0.10708165  0.38788482  0.44074908    -0.15600
F726        F  0.11964983  0.35353412  0.37579231    -0.13300
C727        C  0.08175779  0.57588677  0.61728678     0.24800
C728        C  0.10183888  0.55802209  0.60108097    -0.23400
C729        C  0.12558585  0.56122302  0.61742165     0.19700
C730        C  0.12922826  0.58180551  0.64995160     0.24700
C731        C  0.10900172  0.59899336  0.66728962    -0.23300
C732        C  0.08521437  0.59603566  0.65026088     0.19600
F733        F  0.06501916  0.61138647  0.66615104    -0.13300
F734        F  0.05865458  0.57306929  0.60171375    -0.15600
F735        F  0.15264658  0.58528220  0.66414379    -0.15600
F736        F  0.14533212  0.54464497  0.60153511    -0.13300
C737        C  0.85264376  0.52710390  0.50459323     0.24800
C738        C  0.84051412  0.49513057  0.50243555    -0.23400
C739        C  0.85469350  0.46471498  0.50121802     0.19700
C740        C  0.88064376  0.46617636  0.50389492     0.24700
C741        C  0.89280731  0.49815451  0.50676718    -0.23300
C742        C  0.87859713  0.52864549  0.50619378     0.19600
F743        F  0.88977266  0.55993577  0.50823873    -0.13300
F744        F  0.83933152  0.55691290  0.50467142    -0.15600
F745        F  0.89390417  0.43634111  0.50307823    -0.15600
F746        F  0.84338648  0.43354386  0.49880127    -0.13300
C747        C  0.64187917  0.43916262  0.34839452     0.24800
C748        C  0.66428787  0.42613356  0.36360095    -0.23400
C749        C  0.67503431  0.39700865  0.34589205     0.19700
C750        C  0.66367345  0.38117639  0.31433842     0.24700
C751        C  0.64036891  0.39279786  0.30044609    -0.23300
C752        C  0.63034526  0.42312261  0.31700566     0.19600
F753        F  0.60948101  0.43793069  0.30227594    -0.13300
F754        F  0.63140340  0.46825043  0.36287339    -0.15600
F755        F  0.67669519  0.35595102  0.29636007    -0.15600
F756        F  0.69668268  0.38329169  0.35902932    -0.13300
C757        C  0.67783837  0.57707625  0.67155631     0.24800
C758        C  0.66874846  0.58265473  0.63421310    -0.23400
C759        C  0.64838525  0.60482908  0.62900195     0.19700
C760        C  0.63642192  0.61953925  0.66062000     0.24700
C761        C  0.64372596  0.61103074  0.69848366    -0.23300
C762        C  0.66576520  0.59148047  0.70326022     0.19600
F763        F  0.67662685  0.58747406  0.73812723    -0.13300
F764        F  0.69820568  0.55701605  0.67767411    -0.15600
F765        F  0.61773730  0.64243008  0.65399911    -0.15600
F766        F  0.64044836  0.61308022  0.59316394    -0.13300
C767        C  0.88222369  0.99481089  0.46495610     0.24800
C768        C  0.89495921  0.99947216  0.49975848    -0.23400
C769        C  0.88150601  0.00408788  0.53382907     0.19700
C770        C  0.85555418  0.00343716  0.53319689     0.24700
C771        C  0.84275017  0.99872183  0.49836513    -0.23300
C772        C  0.85627106  0.99478123  0.46417606     0.19600
F773        F  0.84441506  0.98996913  0.43014506    -0.13300
F774        F  0.89493720  0.99106025  0.43160556    -0.15600
F775        F  0.84295486  0.00817808  0.56649287    -0.15600
F776        F  0.89351509  0.00844954  0.56782565    -0.13300
C777        C  0.62785971  0.26743326  0.19149939     0.24800
C778        C  0.61925419  0.28602939  0.22353112    -0.23400
C779        C  0.61001692  0.26789270  0.25525820     0.19700
C780        C  0.61092155  0.23200748  0.25620074     0.24700
C781        C  0.62069186  0.21328637  0.22516243    -0.23300
C782        C  0.62851241  0.23112722  0.19228554     0.19600
F783        F  0.63772703  0.21350844  0.16178316    -0.13300
F784        F  0.63652403  0.28436628  0.16029046    -0.15600
F785        F  0.60257200  0.21543599  0.28788458    -0.15600
F786        F  0.60065822  0.28512818  0.28596138    -0.13300
C787        C  0.64557498  0.05602623  0.34423033     0.24800
C788        C  0.66803368  0.06811708  0.35964849    -0.23400
C789        C  0.67883715  0.09782915  0.34384224     0.19700
C790        C  0.66703151  0.11579492  0.31413426     0.24700
C791        C  0.64370176  0.10487029  0.29982758    -0.23300
C792        C  0.63386793  0.07365505  0.31426845     0.19600
F793        F  0.61296649  0.05961423  0.29887901    -0.13300
F794        F  0.63535550  0.02627073  0.35707061    -0.15600
F795        F  0.67949956  0.14247646  0.29832681    -0.15600
F796        F  0.70088592  0.10990856  0.35730295    -0.13300
C797        C  0.64361857  0.73256151  0.77852310     0.24800
C798        C  0.62096754  0.71445690  0.77771328    -0.23400
C799        C  0.59852455  0.73310735  0.77962298     0.19700
C800        C  0.59867631  0.76913339  0.77941087     0.24700
C801        C  0.62127656  0.78724395  0.77709964    -0.23300
C802        C  0.64377218  0.76861479  0.77810321     0.19600
F803        F  0.66592878  0.78532078  0.77743028    -0.13300
F804        F  0.66564025  0.71529640  0.77843127    -0.15600
F805        F  0.57654375  0.78601425  0.77796195    -0.15600
F806        F  0.57627926  0.71668747  0.77816250    -0.13300
C807        C  0.66701484  0.90259134  0.69988153     0.24800
C808        C  0.64287007  0.88901902  0.69490408    -0.23400
C809        C  0.63364057  0.88606261  0.65692273     0.19700
C810        C  0.64615223  0.90123078  0.62631360     0.24700
C811        C  0.66899653  0.91781473  0.63217035    -0.23300
C812        C  0.67973821  0.91725883  0.66903797     0.19600
F813        F  0.70232321  0.93168421  0.67567327    -0.13300
F814        F  0.67866359  0.90120889  0.73444762    -0.15600
F815        F  0.63627173  0.89844086  0.59054896    -0.15600
F816        F  0.61311996  0.86714182  0.64860677    -0.13300
C817        C  0.35566024  0.01998547  0.96554195     0.24800
C818        C  0.34181549  0.00571843  0.99557922    -0.23400
C819        C  0.35431515  0.99031644  0.02658908     0.19700
C820        C  0.38032025  0.98891406  0.02740293     0.24700
C821        C  0.39430618  0.00362555  0.99756103    -0.23300
C822        C  0.38166242  0.01922923  0.96663230     0.19600
F823        F  0.39442079  0.03330137  0.93703356    -0.13300
F824        F  0.34399562  0.03552396  0.93558727    -0.15600
F825        F  0.39175928  0.97366402  0.05775070    -0.15600
F826        F  0.34131503  0.97590659  0.05573445    -0.13300
C827        C  0.71089691  0.01407228  0.96058500     0.24800
C828        C  0.72511405  0.00542711  0.99304621    -0.23400
C829        C  0.71320227  0.99280188  0.02590242     0.19700
C830        C  0.68735393  0.98955950  0.02666277     0.24700
C831        C  0.67300479  0.99956245  0.99481106    -0.23300
C832        C  0.68499391  0.01148316  0.96157990     0.19600
F833        F  0.67163675  0.02039023  0.92995514    -0.13300
F834        F  0.72200710  0.02606043  0.92836035    -0.15600
F835        F  0.67633348  0.97775352  0.05902530    -0.15600
F836        F  0.72664806  0.98305768  0.05709872    -0.13300
C837        C  0.60957357  0.09315176  0.09543833     0.24800
C838        C  0.60276707  0.05805796  0.09780389    -0.23400
C839        C  0.60077781  0.04299061  0.13442536     0.19700
C840        C  0.60568081  0.06227729  0.16750558     0.24700
C841        C  0.61283383  0.09706488  0.16493927    -0.23300
C842        C  0.61441668  0.11241881  0.12870116     0.19600
F843        F  0.62146113  0.14583609  0.12541384    -0.13300
F844        F  0.61228755  0.10875516  0.06091995    -0.15600
F845        F  0.60291473  0.04699300  0.20223327    -0.15600
F846        F  0.59402051  0.00951312  0.13849773    -0.13300
C847        C  0.60097714  0.95640600  0.86418752     0.24800
C848        C  0.60101467  0.94017252  0.90034046    -0.23400
C849        C  0.60658255  0.90459259  0.90202526     0.19700
C850        C  0.61257659  0.88615391  0.86865286     0.24700
C851        C  0.61316192  0.90273710  0.83291624    -0.23300
C852        C  0.60691058  0.93793072  0.83099981     0.19600
F853        F  0.60566162  0.95438795  0.79672260    -0.13300
F854        F  0.59517977  0.99033483  0.86063077    -0.15600
F855        F  0.61830660  0.85214419  0.87141645    -0.15600
F856        F  0.60671070  0.88757134  0.93599256    -0.13300
C857        C  0.21148142  0.01920907  0.53816921     0.24800
C858        C  0.22483133  0.01353647  0.50405189    -0.23400
C859        C  0.21167364  0.00700410  0.46984944     0.19700
C860        C  0.18570930  0.00587423  0.46984805     0.24700
C861        C  0.17243449  0.01174296  0.50386829    -0.23300
C862        C  0.18548554  0.01852419  0.53801111     0.19600
F863        F  0.17308624  0.02360751  0.57143536    -0.13300
F864        F  0.22353372  0.02611539  0.57158240    -0.15600
F865        F  0.17350082  0.99963845  0.43638559    -0.15600
F866        F  0.22389322  0.00070622  0.43654633    -0.13300
C867        C  0.52113346  0.16868762  0.23456573     0.24800
C868        C  0.50826376  0.13833312  0.24385387    -0.23400
C869        C  0.52185122  0.10838387  0.25293256     0.19700
C870        C  0.54776092  0.10900256  0.25369988     0.24700
C871        C  0.56061296  0.13942490  0.24496981    -0.23300
C872        C  0.54716999  0.16915575  0.23490821     0.19600
F873        F  0.55920355  0.19887192  0.22647635    -0.13300
F874        F  0.50855888  0.19816533  0.22633105    -0.15600
F875        F  0.56034148  0.07948086  0.26182604    -0.15600
F876        F  0.51009733  0.07813802  0.25996200    -0.13300
C877        C  0.39143388  0.06931112  0.32407381     0.24800
C878        C  0.40070830  0.07290228  0.36161506    -0.23400
C879        C  0.42110035  0.09463840  0.36805367     0.19700
C880        C  0.43235282  0.11182266  0.33753879     0.24700
C881        C  0.42456178  0.10605537  0.29924038    -0.23300
C882        C  0.40290824  0.08603688  0.29335581     0.19600
F883        F  0.39169047  0.08401875  0.25853064    -0.13300
F884        F  0.37124337  0.04933144  0.31688865    -0.15600
F885        F  0.45066994  0.13471534  0.34580641    -0.15600
F886        F  0.42957232  0.10050068  0.40420064    -0.13300
C887        C  0.45543274  0.11729648  0.12642127     0.24800
C888        C  0.45652527  0.10183096  0.16269891    -0.23400
C889        C  0.46479862  0.06749008  0.16565141     0.19700
C890        C  0.47016738  0.04821640  0.13288068     0.24700
C891        C  0.46771626  0.06289162  0.09615635    -0.23300
C892        C  0.46095553  0.09805210  0.09337462     0.19600
F893        F  0.45882191  0.11362948  0.05869510    -0.13300
F894        F  0.44817005  0.15066981  0.12284424    -0.15600
F895        F  0.47761906  0.01499393  0.13734475    -0.15600
F896        F  0.46792703  0.05249482  0.20050007    -0.13300
C897        C  0.51974867  0.85075228  0.72121759     0.24800
C898        C  0.50672390  0.86223273  0.75372905    -0.23400
C899        C  0.52008237  0.87361589  0.78605815     0.19700
C900        C  0.54600942  0.87346739  0.78596947     0.24700
C901        C  0.55903810  0.86197230  0.75352951    -0.23300
C902        C  0.54572053  0.85052854  0.72116180     0.19600
F903        F  0.55786452  0.83849415  0.68974743    -0.13300
F904        F  0.50735004  0.83909524  0.68979434    -0.15600
F905        F  0.55827961  0.88594820  0.81708501    -0.15600
F906        F  0.50812915  0.88627400  0.81727562    -0.13300
C907        C  0.43164927  0.93005687  0.68973254     0.24800
C908        C  0.42289364  0.89717935  0.70101185    -0.23400
C909        C  0.40047889  0.88532737  0.68417759     0.19700
C910        C  0.38858464  0.90439872  0.65531549     0.24700
C911        C  0.39852062  0.93580412  0.64258774    -0.23300
C912        C  0.41995951  0.94864376  0.66044256     0.19600
F913        F  0.42915071  0.97991959  0.65050745    -0.13300
F914        F  0.45155562  0.94463185  0.70749285    -0.15600
F915        F  0.36737089  0.89176641  0.63946027    -0.15600
F916        F  0.38894957  0.85646581  0.69652191    -0.13300
C917        C  0.45222228  0.88650678  0.87167771     0.24800
C918        C  0.45425424  0.90180773  0.83546590    -0.23400
C919        C  0.46271844  0.93597339  0.83284316     0.19700
C920        C  0.46835796  0.95486822  0.86585805     0.24700
C921        C  0.46560864  0.94009848  0.90250591    -0.23300
C922        C  0.45767316  0.90547514  0.90496078     0.19600
F923        F  0.45441371  0.89015959  0.93952624    -0.13300
F924        F  0.44420048  0.85350522  0.87485996    -0.15600
F925        F  0.47649709  0.98773820  0.86169826    -0.15600
F926        F  0.46612069  0.95092675  0.79807870    -0.13300
C927        C  0.21245743  0.48267437  0.52219029     0.24800
C928        C  0.22402362  0.50010374  0.49190379    -0.23400
C929        C  0.20935378  0.51496406  0.46294710     0.19700
C930        C  0.18340360  0.51385417  0.46516813     0.24700
C931        C  0.17165781  0.49727164  0.49611209    -0.23300
C932        C  0.18650048  0.48089106  0.52408812     0.19600
F933        F  0.17596978  0.46390298  0.55387169    -0.13300
F934        F  0.22634656  0.46699154  0.54972320    -0.15600
F935        F  0.16980561  0.52887355  0.43684707    -0.15600
F936        F  0.22014760  0.53169762  0.43320212    -0.13300
C937        C  0.51897675  0.36729411  0.20757721     0.24800
C938        C  0.50552654  0.35794855  0.24041849    -0.23400
C939        C  0.51849855  0.34673121  0.27315554     0.19700
C940        C  0.54450245  0.34595273  0.27347702     0.24700
C941        C  0.55800387  0.35675146  0.24116936    -0.23300
C942        C  0.54493714  0.36696675  0.20802742     0.19600
F943        F  0.55714119  0.37851555  0.17660101    -0.13300
F944        F  0.50712104  0.37849775  0.17552043    -0.15600
F945        F  0.55644509  0.33435504  0.30531315    -0.15600
F946        F  0.50597961  0.33614936  0.30473388    -0.13300
C947        C  0.45383332  0.23410878  0.26150998     0.24800
C948        C  0.44644220  0.21457916  0.22951168    -0.23400
C949        C  0.43902199  0.23158225  0.19578611     0.19700
C950        C  0.43801318  0.26778741  0.19473563     0.24700
C951        C  0.44448149  0.28715023  0.22737136    -0.23300
C952        C  0.45295844  0.26999419  0.26041376     0.19600
F953        F  0.46042924  0.28810104  0.29176560    -0.13300
F954        F  0.46196639  0.21830512  0.29395337    -0.15600
F955        F  0.42994299  0.28387036  0.16246691    -0.15600
F956        F  0.43187563  0.21316144  0.16453221    -0.13300
C957        C  0.39951941  0.38995667  0.30828608     0.24800
C958        C  0.42315592  0.39974198  0.29433293    -0.23400
C959        C  0.43335417  0.43102720  0.30819390     0.19700
C960        C  0.42182854  0.44953409  0.33775592     0.24700
C961        C  0.39913232  0.43838785  0.35300663    -0.23300
C962        C  0.38794138  0.40873479  0.33754350     0.19600
F963        F  0.36571702  0.39751649  0.35095745    -0.13300
F964        F  0.38653275  0.36361690  0.29243240    -0.15600
F965        F  0.43244073  0.47918704  0.35039617    -0.15600
F966        F  0.45433019  0.44432661  0.29255267    -0.13300
C967        C  0.51991428  0.62589171  0.78677060     0.24800
C968        C  0.50661662  0.63635790  0.75400331    -0.23400
C969        C  0.51975151  0.64726946  0.72145601     0.19700
C970        C  0.54573209  0.64784445  0.72173527     0.24700
C971        C  0.55901884  0.63753114  0.75456447    -0.23300
C972        C  0.54587658  0.62656085  0.78708417     0.19600
F973        F  0.55807984  0.61527833  0.81879507    -0.13300
F974        F  0.50789157  0.61380363  0.81810590    -0.15600
F975        F  0.55790132  0.65934682  0.69022896    -0.15600
F976        F  0.50741989  0.65825795  0.68968942    -0.13300
C977        C  0.42250961  0.73210620  0.77664330     0.24800
C978        C  0.44501578  0.71341073  0.77668228    -0.23400
C979        C  0.46750982  0.73181639  0.77963415     0.19700
C980        C  0.46752800  0.76802619  0.77948246     0.24700
C981        C  0.44502767  0.78669189  0.77651625    -0.23300
C982        C  0.42251827  0.76823382  0.77655652     0.19600
F983        F  0.40040532  0.78523259  0.77565393    -0.13300
F984        F  0.40038452  0.71533277  0.77578688    -0.15600
F985        F  0.48974808  0.78453986  0.77923382    -0.15600
F986        F  0.48968579  0.71497377  0.77962297    -0.13300
C987        C  0.42975836  0.61715174  0.65843383     0.24800
C988        C  0.42202840  0.60990407  0.69632837    -0.23400
C989        C  0.39991757  0.59066650  0.70092845     0.19700
C990        C  0.38816996  0.57542886  0.66933034     0.24700
C991        C  0.39744726  0.58011244  0.63207840    -0.23300
C992        C  0.41804769  0.60171425  0.62689055     0.19600
F993        F  0.42645627  0.60881144  0.59110939    -0.13300
F994        F  0.44854247  0.63961882  0.65164348    -0.15600
F995        F  0.36786955  0.55548320  0.67547517    -0.15600
F996        F  0.38864954  0.58777376  0.73549906    -0.13300
C997        C  0.38241653  0.50326120  0.02702898     0.24800
C998        C  0.39611744  0.49133961  0.99531655    -0.23400
C999        C  0.38335735  0.47763838  0.96346876     0.19700
C1000       C  0.35736223  0.47687253  0.96287389     0.24700
C1001       C  0.34371154  0.48924510  0.99431864    -0.23300
C1002       C  0.35644250  0.50199560  0.02662967     0.19600
F1003       F  0.34373825  0.51425680  0.05739574    -0.13300
F1004       F  0.39415521  0.51572719  0.05868812    -0.15600
F1005       F  0.34552778  0.46343562  0.93182291    -0.15600
F1006       F  0.39600088  0.46576221  0.93245932    -0.13300
C1007       C  0.46360284  0.43382335  0.16269795     0.24800
C1008       C  0.45417252  0.40013470  0.15980408    -0.23400
C1009       C  0.45272774  0.38437833  0.12362640     0.19700
C1010       C  0.45944138  0.40263782  0.09059681     0.24700
C1011       C  0.46793473  0.43698109  0.09332359    -0.23300
C1012       C  0.47038595  0.45201618  0.12994054     0.19600
F1013       F  0.47930114  0.48450640  0.13426694    -0.13300
F1014       F  0.46681535  0.44900030  0.19750260    -0.15600
F1015       F  0.45669283  0.38706095  0.05594142    -0.15600
F1016       F  0.44407236  0.35169124  0.12014656    -0.13300
C1017       C  0.45486428  0.61234083  0.86954895     0.24800
C1018       C  0.45351888  0.59670155  0.83330533    -0.23400
C1019       C  0.45921616  0.56131656  0.83001498     0.19700
C1020       C  0.46528106  0.54183766  0.86240218     0.24700
C1021       C  0.46602662  0.55722116  0.89905927    -0.23300
C1022       C  0.46105557  0.59291755  0.90207573     0.19600
F1023       F  0.46174612  0.60915956  0.93658099    -0.13300
F1024       F  0.44960978  0.64638527  0.87365581    -0.15600
F1025       F  0.47034729  0.50779015  0.85758509    -0.15600
F1026       F  0.45965192  0.54554085  0.79520800    -0.13300
C1027       C  0.71352830  0.47479160  0.01025701     0.24800
C1028       C  0.72659415  0.50605850  0.00900664    -0.23400
C1029       C  0.71332641  0.53715700  0.00524499     0.19700
C1030       C  0.68734167  0.53703101  0.00349703     0.24700
C1031       C  0.67427401  0.50573047  0.00449677    -0.23300
C1032       C  0.68758998  0.47459798  0.00760998     0.19600
F1033       F  0.67545335  0.44398797  0.00903932    -0.13300
F1034       F  0.72589716  0.44433335  0.01310861    -0.15600
F1035       F  0.67498846  0.56746018  0.00009261    -0.15600
F1036       F  0.72548415  0.56775811  0.00423132    -0.13300
C1037       C  0.61404046  0.38848920  0.12777931     0.24800
C1038       C  0.61139642  0.40325056  0.16425865    -0.23400
C1039       C  0.60338432  0.43773583  0.16730320     0.19700
C1040       C  0.59884722  0.45739713  0.13447557     0.24700
C1041       C  0.60213299  0.44301579  0.09769204    -0.23300
C1042       C  0.60958677  0.40813775  0.09478746     0.19600
F1043       F  0.61332673  0.39314067  0.06005726    -0.13300
F1044       F  0.62174218  0.35530787  0.12404225    -0.15600
F1045       F  0.59117250  0.49054477  0.13891280    -0.15600
F1046       F  0.59939844  0.45231486  0.20220849    -0.13300
C1047       C  0.60474456  0.56616183  0.83369158     0.24800
C1048       C  0.61241977  0.60069727  0.83589694    -0.23400
C1049       C  0.61319859  0.61712301  0.87176500     0.19700
C1050       C  0.60780958  0.59869200  0.90523119     0.24700
C1051       C  0.60132322  0.56348525  0.90322528    -0.23300
C1052       C  0.59917480  0.54781612  0.86687282     0.19600
F1053       F  0.59157067  0.51462966  0.86318952    -0.13300
F1054       F  0.60191627  0.55032485  0.79917778    -0.15600
F1055       F  0.60963470  0.61514917  0.93952548    -0.15600
F1056       F  0.61982078  0.65078118  0.87447617    -0.13300
loop_ 
_geom_bond_atom_site_label_1 
_geom_bond_atom_site_label_2 
_geom_bond_distance 
_geom_bond_site_symmetry_2 
_ccdc_geom_bond_type 
O1           Cu9   2.013       .  S
O1           C11   1.278   1_554  A
O2           Cu9   2.006       .  S
O2           C12   1.278       .  A
O3           Cu9   2.011   1_556  S
O3           C13   1.278       .  A
O4           Cu9   2.015       .  S
O4           C14   1.280       .  A
O5          Cu10   2.002   1_554  S
O5           C14   1.277       .  A
O6          Cu10   2.001       .  S
O6           C13   1.278       .  A
O7          Cu10   2.000       .  S
O7           C12   1.277   1_556  A
O8          Cu10   2.006       .  S
O8           C11   1.277       .  A
Cu9         Cu10   2.371   1_554  S
C11          C28   1.468       .  S
C12        C1031   1.473       .  S
C13        C1051   1.486       .  S
C14        C1041   1.488       .  S
O15         Cu23   2.001       .  S
O15          C25   1.278       .  A
O16         Cu23   2.009   1_556  S
O16          C26   1.278       .  A
O17         Cu23   2.002       .  S
O17          C27   1.277   1_554  A
O18         Cu23   2.010       .  S
O18          C28   1.277   1_554  A
O19         Cu24   2.010       .  S
O19          C28   1.278       .  A
O20         Cu24   2.001       .  S
O20          C27   1.277       .  A
O21         Cu24   2.012       .  S
O21          C26   1.279       .  A
O22         Cu24   2.013   1_554  S
O22          C25   1.278       .  A
Cu23        Cu24   2.370   1_554  S
C25        C1011   1.486       .  S
C26        C1021   1.491       .  S
C27         C998   1.475       .  S
C29          C30   1.532       .  S
C29          C35   1.541       .  S
C29          C33   1.544       .  S
C29         C988   1.537       .  S
C30          H37   1.086       .  S
C30          C31   1.368       .  D
C31          C32   1.546       .  S
C31         C978   1.497       .  S
C32          C36   1.542       .  S
C32          C34   1.534       .  S
C32          H38   1.110       .  S
C33          H39   1.086       .  S
C33          C34   1.365       .  D
C34         C968   1.479       .  S
C35          H40   1.083       .  S
C35          C36   1.367       .  D
C36        C1018   1.489       .  S
C41          C42   1.540       .  S
C41          C47   1.530       .  S
C41          C45   1.547       .  S
C41         C958   1.537       .  S
C42          H49   1.083       .  S
C42          C43   1.367       .  D
C43          C44   1.538       .  S
C43         C951   1.482       .  S
C44          C48   1.538       .  S
C44          C46   1.533       .  S
C44          H50   1.111       .  S
C45          H51   1.085       .  S
C45          C46   1.368       .  D
C46         C938   1.480       .  S
C47          H52   1.087       .  S
C47          C48   1.365       .  D
C48        C1008   1.483       .  S
N53          N54   1.322       .  A
N53          C57   1.349       .  A
N53         Cu61   2.089       .  S
N54          C55   1.342       .  A
N54         Cu60   2.065       .  S
C55          C56   1.382       .  A
C55          H58   1.081       .  S
C56         C961   1.483       .  S
C56          C57   1.389       .  A
C57          H59   1.080       .  S
Cu60         N63   2.064       .  S
Cu61         N71   2.089       .  S
Cu62         N64   2.067       .  S
Cu62         N70   2.068       .  S
N63          N64   1.321       .  A
N63          C67   1.344       .  A
N64          C65   1.344       .  A
C65          C66   1.383       .  A
C65          H68   1.082       .  S
C66         C928   1.472       .  S
C66          C67   1.382       .  A
C67          H69   1.082       .  S
N70          N71   1.323       .  A
N70          C74   1.343       .  A
N71          C72   1.348       .  A
C72          C73   1.388       .  A
C72          H75   1.080       .  S
C73         C991   1.483       .  S
C73          C74   1.383       .  A
C74          H76   1.081       .  S
C77          C78   1.532       .  S
C77          C83   1.547       .  S
C77          C81   1.542       .  S
C77         C908   1.539       .  S
C78          H85   1.087       .  S
C78          C79   1.362       .  D
C79          C80   1.537       .  S
C79         C918   1.483       .  S
C80          C84   1.544       .  S
C80          C82   1.534       .  S
C80          H86   1.110       .  S
C81          H87   1.086       .  S
C81          C82   1.364       .  D
C82         C898   1.476       .  S
C83          H88   1.081       .  S
C83          C84   1.373       .  D
C84         C981   1.499       .  S
C89          C90   1.540       .  S
C89          C95   1.529       .  S
C89          C93   1.543       .  S
C89         C881   1.536       .  S
C90          H97   1.083       .  S
C90          C91   1.368       .  D
C91          C92   1.538       .  S
C91         C888   1.485       .  S
C92          C96   1.540       .  S
C92          C94   1.534       .  S
C92          H98   1.110       .  S
C93          H99   1.085       .  S
C93          C94   1.366       .  D
C94         C868   1.480       .  S
C95         H100   1.087       .  S
C95          C96   1.365       .  D
C96         C948   1.480       .  S
N101        N102   1.322       .  A
N101        C105   1.349       .  A
N101       Cu109   2.093   1_565  S
N102        C103   1.343       .  A
N102       Cu108   2.062       .  S
C103        C104   1.381       .  A
C103        H106   1.081       .  S
C104        C911   1.482       .  S
C104        C105   1.389       .  A
C105        H107   1.080       .  S
Cu108       N111   2.061   1_565  S
Cu109       N119   2.093       .  S
Cu110       N112   2.063       .  S
Cu110       N118   2.063       .  S
N111        N112   1.319       .  A
N111        C115   1.342       .  A
N112        C113   1.343       .  A
C113        C114   1.385       .  A
C113        H116   1.082       .  S
C114        C858   1.477       .  S
C114        C115   1.384       .  A
C115        H117   1.081   1_545  S
N118        N119   1.323       .  A
N118        C122   1.343       .  A
N119        C120   1.348       .  A
C120        C121   1.389       .  A
C120        H123   1.080       .  S
C121        C878   1.482       .  S
C121        C122   1.381       .  A
C122        H124   1.081       .  S
O125       Cu133   2.010       .  S
O125        C135   1.278   1_554  A
O126       Cu133   2.024       .  S
O126        C136   1.279       .  A
O127       Cu133   2.016   1_556  S
O127        C137   1.279       .  A
O128       Cu133   2.014   1_545  S
O128        C138   1.279       .  A
O129       Cu134   2.015   1_554  S
O129        C138   1.279       .  A
O130       Cu134   2.006   1_565  S
O130        C137   1.278       .  A
O131       Cu134   2.001       .  S
O131        C136   1.276   1_546  A
O132       Cu134   1.989       .  S
O132        C135   1.275   1_545  A
Cu133      Cu134   2.369   1_564  S
C135        C831   1.471       .  S
C136        C151   1.471       .  S
C137        C848   1.492       .  S
C138        C838   1.492       .  S
O139       Cu147   2.011   1_545  S
O139        C149   1.279       .  A
O140       Cu147   2.016   1_556  S
O140        C150   1.279       .  A
O141       Cu147   2.019       .  S
O141        C151   1.278       .  A
O142       Cu147   2.009       .  S
O142        C152   1.278   1_564  A
O143       Cu148   2.002       .  S
O143        C152   1.277       .  A
O144       Cu148   2.008       .  S
O144        C151   1.278   1_546  A
O145       Cu148   2.006   1_565  S
O145        C150   1.278       .  A
O146       Cu148   2.010   1_554  S
O146        C149   1.277       .  A
Cu147      Cu148   2.368   1_564  S
C149        C891   1.489       .  S
C150        C921   1.490       .  S
C152        C821   1.481       .  S
C153        C154   1.531       .  S
C153        C159   1.543       .  S
C153        C157   1.542       .  S
C153        C808   1.533       .  S
C154        H161   1.086       .  S
C154        C155   1.367       .  D
C155        C156   1.540       .  S
C155        C801   1.487       .  S
C156        C160   1.538       .  S
C156        C158   1.532       .  S
C156        H162   1.110       .  S
C157        H163   1.084       .  S
C157        C158   1.361       .  D
C158        C901   1.475       .  S
C159        H164   1.085       .  S
C159        C160   1.370       .  D
C160        C851   1.487       .  S
C165        C166   1.543       .  S
C165        C171   1.530       .  S
C165        C169   1.541       .  S
C165        C791   1.535       .  S
C166        H173   1.083       .  S
C166        C167   1.371       .  D
C167        C168   1.541       .  S
C167        C781   1.485       .  S
C168        C172   1.541       .  S
C168        C170   1.533       .  S
C168        H174   1.111       .  S
C169        H175   1.086       .  S
C169        C170   1.364       .  D
C170        C871   1.475       .  S
C171        H176   1.087       .  S
C171        C172   1.363       .  D
C172        C841   1.485       .  S
N177        N178   1.319   1_565  A
N177        C181   1.341       .  A
N177       Cu185   2.056       .  S
N178        C179   1.341       .  A
N178       Cu184   2.051       .  S
C179        C180   1.382   1_545  A
C179        H182   1.082       .  S
C180        C771   1.470       .  S
C180        C181   1.382       .  A
C181        H183   1.082       .  S
Cu184       N187   2.052       .  S
Cu185       N195   2.057       .  S
Cu186       N188   2.089   1_565  S
Cu186       N194   2.089       .  S
N187        N188   1.321       .  A
N187        C191   1.340       .  A
N188        C189   1.348       .  A
C189        C190   1.390       .  A
C189        H192   1.080       .  S
C190        C788   1.482       .  S
C190        C191   1.381       .  A
C191        H193   1.081       .  S
N194        N195   1.322       .  A
N194        C198   1.346       .  A
N195        C196   1.342       .  A
C196        C197   1.382       .  A
C196        H199   1.081       .  S
C197        C811   1.481       .  S
C197        C198   1.389       .  A
C198        H200   1.080       .  S
C201        C202   1.543       .  S
C201        C207   1.529       .  S
C201        C205   1.543       .  S
C201        C761   1.533       .  S
C202        H209   1.083       .  S
C202        C203   1.368       .  D
C203        C204   1.534       .  S
C203       C1048   1.480       .  S
C204        C208   1.541       .  S
C204        C206   1.534       .  S
C204        H210   1.110       .  S
C205        H211   1.086       .  S
C205        C206   1.364       .  D
C206        C971   1.479       .  S
C207        H212   1.086       .  S
C207        C208   1.365       .  D
C208        C798   1.486       .  S
C213        C214   1.529       .  S
C213        C219   1.540       .  S
C213        C217   1.545       .  S
C213        C751   1.538       .  S
C214        H221   1.087       .  S
C214        C215   1.364       .  D
C215        C216   1.542       .  S
C215       C1038   1.485       .  S
C216        C220   1.540       .  S
C216        C218   1.536       .  S
C216        H222   1.110       .  S
C217        H223   1.085       .  S
C217        C218   1.369       .  D
C218        C941   1.484       .  S
C219        H224   1.083       .  S
C219        C220   1.367       .  D
C220        C778   1.487       .  S
N225        N226   1.322       .  A
N225        C229   1.350       .  A
N225       Cu233   2.095       .  S
N226        C227   1.341       .  A
N226       Cu232   2.071       .  S
C227        C228   1.386       .  A
C227        H230   1.081       .  S
C228        C748   1.494       .  S
C228        C229   1.394       .  A
C229        H231   1.080       .  S
Cu232       N235   2.069       .  S
Cu233       N243   2.095       .  S
Cu234       N236   2.054       .  S
Cu234       N242   2.055       .  S
N235        N236   1.320       .  A
N235        C239   1.346       .  A
N236        C237   1.341       .  A
C237        C238   1.381       .  A
C237        H240   1.083       .  S
C238        C738   1.472       .  S
C238        C239   1.385       .  A
C239        H241   1.083       .  S
N242        N243   1.322       .  A
N242        C246   1.341       .  A
N243        C244   1.348       .  A
C244        C245   1.389       .  A
C244        H247   1.080       .  S
C245        C758   1.480       .  S
C245        C246   1.380       .  A
C246        H248   1.081       .  S
O249       Cu257   2.009       .  S
O249        C259   1.278       .  A
O250       Cu257   2.024       .  S
O250        C260   1.279       .  A
O251       Cu257   2.022       .  S
O251        C261   1.280       .  A
O252       Cu257   2.016       .  S
O252        C262   1.278       .  A
O253       Cu258   2.008       .  S
O253        C262   1.276       .  A
O254       Cu258   2.008       .  S
O254        C261   1.278       .  A
O255       Cu258   2.010       .  S
O255        C260   1.278       .  A
O256       Cu258   2.005       .  S
O256        C259   1.278       .  A
Cu257      Cu258   2.371       .  S
C259        C931   1.482       .  S
C260        C275   1.474       .  S
C261        C721   1.493       .  S
C262        C728   1.469       .  S
O263       Cu271   2.017       .  S
O263        C273   1.279       .  A
O264       Cu271   2.023       .  S
O264        C274   1.280       .  A
O265       Cu271   2.012   1_455  S
O265        C275   1.278       .  A
O266       Cu271   2.001       .  S
O266        C276   1.277       .  A
O267       Cu272   2.011       .  S
O267        C276   1.279       .  A
O268       Cu272   2.022   1_455  S
O268        C275   1.279       .  A
O269       Cu272   2.005       .  S
O269        C274   1.278       .  A
O270       Cu272   1.993       .  S
O270        C273   1.274       .  A
Cu271      Cu272   2.373       .  S
C273        C698   1.463       .  S
C274        C708   1.494       .  S
C276        C741   1.475       .  S
C277        C278   1.535       .  S
C277        C283   1.541       .  S
C277        C281   1.543       .  S
C277        C688   1.538       .  S
C278        H285   1.086       .  S
C278        C279   1.370       .  D
C279        C280   1.541       .  S
C279        C711   1.490       .  S
C280        C284   1.537       .  S
C280        C282   1.527       .  S
C280        H286   1.111       .  S
C281        H287   1.086       .  S
C281        C282   1.360       .  D
C282        C668   1.464   1_655  S
C283        H288   1.081       .  S
C283        C284   1.368       .  D
C284        C678   1.483       .  S
C289        C290   1.543       .  S
C289        C295   1.533       .  S
C289        C293   1.538       .  S
C289        C658   1.536       .  S
C290        H297   1.079       .  S
C290        C291   1.369       .  D
C291        C292   1.540       .  S
C291        C701   1.484       .  S
C292        C296   1.540       .  S
C292        C294   1.535       .  S
C292        H298   1.111       .  S
C293        H299   1.086       .  S
C293        C294   1.362       .  D
C294        C638   1.476   1_655  S
C295        H300   1.087       .  S
C295        C296   1.365       .  D
C296        C648   1.480       .  S
N301        N302   1.324       .  A
N301        C305   1.343       .  A
N301       Cu309   2.066       .  S
N302        C303   1.348       .  A
N302       Cu308   2.087       .  S
C303        C304   1.384       .  A
C303        H306   1.080       .  S
C304        C661   1.472       .  S
C304        C305   1.379       .  A
C305        H307   1.080       .  S
Cu308       N311   2.087   1_554  S
Cu309       N319   2.065       .  S
Cu310       N312   2.056       .  S
Cu310       N318   2.055   1_556  S
N311        N312   1.321       .  A
N311        C315   1.348       .  A
N312        C313   1.340       .  A
C313        C314   1.382       .  A
C313        H316   1.082       .  S
C314        C691   1.486       .  S
C314        C315   1.392       .  A
C315        H317   1.080       .  S
N318        N319   1.320       .  A
N318        C322   1.342   1_554  A
N319        C320   1.344       .  A
C320        C321   1.384       .  A
C320        H323   1.083       .  S
C321       C1028   1.473       .  S
C321        C322   1.382   1_554  A
C322        H324   1.083       .  S
C325        C326   1.524       .  S
C325        C331   1.538       .  S
C325        C329   1.547       .  S
C325        C618   1.530       .  S
C326        H333   1.087       .  S
C326        C327   1.364       .  D
C327        C328   1.541       .  S
C327        C681   1.482       .  S
C328        C332   1.542       .  S
C328        C330   1.531       .  S
C328        H334   1.111       .  S
C329        H335   1.085       .  S
C329        C330   1.366       .  D
C330        C608   1.474   1_655  S
C331        H336   1.084       .  S
C331        C332   1.367       .  D
C332        C628   1.485       .  S
C337        C338   1.539       .  S
C337        C343   1.532       .  S
C337        C341   1.543       .  S
C337        C588   1.537       .  S
C338        H345   1.085       .  S
C338        C339   1.367       .  D
C339        C340   1.540       .  S
C339        C651   1.482       .  S
C340        C344   1.542       .  S
C340        C342   1.532       .  S
C340        H346   1.111       .  S
C341        H347   1.085       .  S
C341        C342   1.364       .  D
C342        C578   1.474   1_655  S
C343        H348   1.086       .  S
C343        C344   1.367       .  D
C344        C601   1.488       .  S
N349        N350   1.321       .  A
N349        C353   1.345       .  A
N349       Cu357   2.083       .  S
N350        C351   1.344       .  A
N350       Cu356   2.071       .  S
C351        C352   1.387       .  A
C351        H354   1.081       .  S
C352        C591   1.490       .  S
C352        C353   1.390       .  A
C353        H355   1.079       .  S
Cu356       N359   2.070       .  S
Cu357       N367   2.082   1_544  S
Cu358       N360   2.049   1_565  S
Cu358       N366   2.050       .  S
N359        N360   1.320   1_554  A
N359        C363   1.343       .  A
N360        C361   1.342   1_545  A
C361        C362   1.380   1_565  A
C361        H364   1.082       .  S
C362        C828   1.470       .  S
C362        C363   1.384   1_556  A
C363        H365   1.082       .  S
N366        N367   1.320       .  A
N366        C370   1.339       .  A
N367        C368   1.348       .  A
C368        C369   1.389       .  A
C368        H371   1.080       .  S
C369        C621   1.478       .  S
C369        C370   1.380       .  A
C370        H372   1.081       .  S
O373       Cu381   2.002       .  S
O373        C383   1.277       .  A
O374       Cu381   2.010       .  S
O374        C384   1.278       .  A
O375       Cu381   2.009       .  S
O375        C385   1.279   1_545  A
O376       Cu381   2.021       .  S
O376        C386   1.279       .  A
O377       Cu382   2.010   1_545  S
O377        C386   1.279       .  A
O378       Cu382   2.015       .  S
O378        C385   1.278       .  A
O379       Cu382   2.003       .  S
O379        C384   1.276   1_565  A
O380       Cu382   1.999       .  S
O380        C383   1.277   1_565  A
Cu381      Cu382   2.370   1_545  S
C383        C861   1.470       .  S
C384        C398   1.465       .  S
C385        C568   1.492       .  S
C386        C558   1.488       .  S
O387       Cu395   1.992       .  S
O387        C397   1.275       .  A
O388       Cu395   2.002   1_455  S
O388        C398   1.276       .  A
O389       Cu395   2.021       .  S
O389        C399   1.280       .  A
O390       Cu395   2.014   1_565  S
O390        C400   1.280       .  A
O391       Cu396   2.011       .  S
O391        C400   1.278       .  A
O392       Cu396   2.003   1_545  S
O392        C399   1.278       .  A
O393       Cu396   2.009   1_455  S
O393        C398   1.278   1_565  A
O394       Cu396   2.000       .  S
O394        C397   1.277   1_565  A
Cu395      Cu396   2.371   1_545  S
C397        C768   1.464   1_545  S
C399        C598   1.492       .  S
C400        C631   1.489       .  S
C401        C402   1.544       .  S
C401        C407   1.533       .  S
C401        C405   1.538       .  S
C401        C551   1.538       .  S
C402        H409   1.081       .  S
C402        C403   1.374       .  D
C403        C404   1.546       .  S
C403        C538   1.504       .  S
C404        C408   1.541       .  S
C404        C406   1.537       .  S
C404        H410   1.106       .  S
C405        H411   1.086       .  S
C405        C406   1.359       .  D
C406        C671   1.468       .  S
C407        H412   1.086       .  S
C407        C408   1.366       .  D
C408        C731   1.494       .  S
C413        C414   1.526       .  S
C413        C419   1.541       .  S
C413        C417   1.546       .  S
C413        C528   1.535       .  S
C414        H421   1.087       .  S
C414        C415   1.365       .  D
C415        C416   1.542       .  S
C415        C521   1.488       .  S
C416        C420   1.541       .  S
C416        C418   1.530       .  S
C416        H422   1.110       .  S
C417        H423   1.085       .  S
C417        C418   1.367       .  D
C418        C641   1.475       .  S
C419        H424   1.084       .  S
C419        C420   1.370       .  D
C420        C718   1.490       .  S
N425        N426   1.321       .  A
N425        C429   1.347       .  A
N425       Cu433   2.083   1_554  S
N426        C427   1.343       .  A
N426       Cu432   2.060       .  S
C427        C428   1.382       .  A
C427        H430   1.081       .  S
C428        C531   1.481       .  S
C428        C429   1.388       .  A
C429        H431   1.080       .  S
Cu432       N435   2.059       .  S
Cu433       N443   2.083       .  S
Cu434       N436   2.076       .  S
Cu434       N442   2.077       .  S
N435        N436   1.321   1_554  A
N435        C439   1.342       .  A
N436        C437   1.345       .  A
C437        C438   1.385       .  A
C437        H440   1.082       .  S
C438       C1001   1.474       .  S
C438        C439   1.381   1_556  A
C439        H441   1.082       .  S
N442        N443   1.323       .  A
N442        C446   1.346       .  A
N443        C444   1.346       .  A
C444        C445   1.386       .  A
C444        H447   1.080       .  S
C445        C548   1.483       .  S
C445        C446   1.385       .  A
C446        H448   1.081       .  S
C449        C450   1.533       .  S
C449        C455   1.545       .  S
C449        C453   1.542       .  S
C449        C508   1.542       .  S
C450        H457   1.086       .  S
C450        C451   1.365       .  D
C451        C452   1.537       .  S
C451        C571   1.491       .  S
C452        C456   1.546       .  S
C452        C454   1.533       .  S
C452        H458   1.108       .  S
C453        H459   1.086       .  S
C453        C454   1.365       .  D
C454        C611   1.477       .  S
C455        H460   1.080       .  S
C455        C456   1.374       .  D
C456        C541   1.500       .  S
C461        C462   1.545       .  S
C461        C467   1.530       .  S
C461        C465   1.542       .  S
C461        C498   1.539       .  S
C462        H469   1.082       .  S
C462        C463   1.371       .  D
C463        C464   1.538       .  S
C463        C561   1.484       .  S
C464        C468   1.540       .  S
C464        C466   1.534       .  S
C464        H470   1.110       .  S
C465        H471   1.086       .  S
C465        C466   1.365       .  D
C466        C581   1.479       .  S
C467        H472   1.087       .  S
C467        C468   1.366       .  D
C468        C518   1.486       .  S
N473        N474   1.323       .  A
N473        C477   1.343       .  A
N473       Cu481   2.060       .  S
N474        C475   1.350       .  A
N474       Cu480   2.101   1_554  S
C475        C476   1.390       .  A
C475        H478   1.080       .  S
C476        C501   1.481       .  S
C476        C477   1.380       .  A
C477        H479   1.080       .  S
Cu480       N483   2.101   1_545  S
Cu481       N491   2.060       .  S
Cu482       N484   2.075       .  S
Cu482       N490   2.074   1_565  S
N483        N484   1.324       .  A
N483        C487   1.351       .  A
N484        C485   1.344       .  A
C485        C486   1.383       .  A
C485        H488   1.082       .  S
C486        C511   1.486       .  S
C486        C487   1.390       .  A
C487        H489   1.080       .  S
N490        N491   1.321   1_556  A
N490        C494   1.346   1_545  A
N491        C492   1.343       .  A
C492        C493   1.381   1_554  A
C492        H495   1.082       .  S
C493        C818   1.474       .  S
C493        C494   1.385   1_545  A
C494        H496   1.082       .  S
C497        C498   1.416       .  A
C497        C502   1.403       .  A
C497        F504   1.354       .  S
C498        C499   1.417       .  A
C499        C500   1.398       .  A
C499        F506   1.358       .  S
C500        C501   1.400       .  A
C500        F505   1.358       .  S
C501        C502   1.406       .  A
C502        F503   1.358       .  S
C507        C508   1.416       .  A
C507        C512   1.402       .  A
C507        F514   1.353       .  S
C508        C509   1.419       .  A
C509        C510   1.401       .  A
C509        F516   1.359       .  S
C510        C511   1.401       .  A
C510        F515   1.358       .  S
C511        C512   1.405       .  A
C512        F513   1.358       .  S
C517        C518   1.406       .  A
C517        C522   1.392       .  A
C517        F524   1.358       .  S
C518        C519   1.407       .  A
C519        C520   1.407       .  A
C519        F526   1.357       .  S
C520        C521   1.407       .  A
C520        F525   1.356       .  S
C521        C522   1.408       .  A
C522        F523   1.358       .  S
C527        C528   1.417       .  A
C527        C532   1.398       .  A
C527        F534   1.358       .  S
C528        C529   1.415       .  A
C529        C530   1.400       .  A
C529        F536   1.356       .  S
C530        C531   1.405       .  A
C530        F535   1.358       .  S
C531        C532   1.402       .  A
C532        F533   1.358       .  S
C537        C538   1.411       .  A
C537        C542   1.402       .  A
C537        F544   1.358       .  S
C538        C539   1.411       .  A
C539        C540   1.401       .  A
C539        F546   1.353       .  S
C540        C541   1.410       .  A
C540        F545   1.356       .  S
C541        C542   1.409       .  A
C542        F543   1.358       .  S
C547        C548   1.402       .  A
C547        C552   1.397       .  A
C547        F554   1.358       .  S
C548        C549   1.405       .  A
C549        C550   1.401       .  A
C549        F556   1.358       .  S
C550        C551   1.417       .  A
C550        F555   1.355       .  S
C551        C552   1.417       .  A
C552        F553   1.358       .  S
C557        C558   1.413       .  A
C557        C562   1.406       .  A
C557        F564   1.358       .  S
C558        C559   1.408       .  A
C559        C560   1.397       .  A
C559        F566   1.358       .  S
C560        C561   1.405       .  A
C560        F565   1.357       .  S
C561        C562   1.403       .  A
C562        F563   1.357       .  S
C567        C568   1.414       .  A
C567        C572   1.404       .  A
C567        F574   1.358       .  S
C568        C569   1.410       .  A
C569        C570   1.395       .  A
C569        F576   1.358       .  S
C570        C571   1.408       .  A
C570        F575   1.358       .  S
C571        C572   1.405       .  A
C572        F573   1.358       .  S
C577        C578   1.404       .  A
C577        C582   1.400       .  A
C577        F584   1.357       .  S
C578        C579   1.403       .  A
C579        C580   1.392       .  A
C579        F586   1.358       .  S
C580        C581   1.407       .  A
C580        F585   1.358       .  S
C581        C582   1.407       .  A
C582        F583   1.358       .  S
C587        C588   1.415       .  A
C587        C592   1.398       .  A
C587        F594   1.358       .  S
C588        C589   1.414       .  A
C589        C590   1.400       .  A
C589        F596   1.356       .  S
C590        C591   1.409       .  A
C590        F595   1.357       .  S
C591        C592   1.407       .  A
C592        F593   1.357       .  S
C597        C598   1.411       .  A
C597        C602   1.398       .  A
C597        F604   1.358       .  S
C598        C599   1.413       .  A
C599        C600   1.403       .  A
C599        F606   1.357       .  S
C600        C601   1.404       .  A
C600        F605   1.357       .  S
C601        C602   1.407       .  A
C602        F603   1.358       .  S
C607        C608   1.404       .  A
C607        C612   1.394       .  A
C607        F614   1.356       .  S
C608        C609   1.404       .  A
C609        C610   1.397       .  A
C609        F616   1.358       .  S
C610        C611   1.406       .  A
C610        F615   1.358       .  S
C611        C612   1.405       .  A
C612        F613   1.357       .  S
C617        C618   1.416       .  A
C617        C622   1.399       .  A
C617        F624   1.358       .  S
C618        C619   1.413       .  A
C619        C620   1.395       .  A
C619        F626   1.356       .  S
C620        C621   1.406       .  A
C620        F625   1.357       .  S
C621        C622   1.402       .  A
C622        F623   1.358       .  S
C627        C628   1.409       .  A
C627        C632   1.396       .  A
C627        F634   1.358       .  S
C628        C629   1.401       .  A
C629        C630   1.403       .  A
C629        F636   1.357       .  S
C630        C631   1.414       .  A
C630        F635   1.357       .  S
C631        C632   1.408       .  A
C632        F633   1.358       .  S
C637        C638   1.405       .  A
C637        C642   1.398       .  A
C637        F644   1.357       .  S
C638        C639   1.406       .  A
C639        C640   1.392       .  A
C639        F646   1.358       .  S
C640        C641   1.404       .  A
C640        F645   1.358       .  S
C641        C642   1.406       .  A
C642        F643   1.358       .  S
C647        C648   1.406       .  A
C647        C652   1.408       .  A
C647        F654   1.357       .  S
C648        C649   1.403       .  A
C649        C650   1.393       .  A
C649        F656   1.358       .  S
C650        C651   1.405       .  A
C650        F655   1.358       .  S
C651        C652   1.406       .  A
C652        F653   1.357       .  S
C657        C658   1.417       .  A
C657        C662   1.399       .  A
C657        F664   1.353       .  S
C658        C659   1.418       .  A
C659        C660   1.396       .  A
C659        F666   1.359       .  S
C660        C661   1.398       .  A
C660        F665   1.358       .  S
C661        C662   1.402       .  A
C662        F663   1.358       .  S
C667        C668   1.402       .  A
C667        C672   1.394       .  A
C667        F674   1.358       .  S
C668        C669   1.401       .  A
C669        C670   1.397       .  A
C669        F676   1.357       .  S
C670        C671   1.403       .  A
C670        F675   1.356       .  S
C671        C672   1.403       .  A
C672        F673   1.358       .  S
C677        C678   1.406       .  A
C677        C682   1.390       .  A
C677        F684   1.359       .  S
C678        C679   1.406       .  A
C679        C680   1.407       .  A
C679        F686   1.356       .  S
C680        C681   1.405       .  A
C680        F685   1.357       .  S
C681        C682   1.406       .  A
C682        F683   1.359       .  S
C687        C688   1.415       .  A
C687        C692   1.398       .  A
C687        F694   1.354       .  S
C688        C689   1.416       .  A
C689        C690   1.399       .  A
C689        F696   1.358       .  S
C690        C691   1.404       .  A
C690        F695   1.357       .  S
C691        C692   1.407       .  A
C692        F693   1.358       .  S
C697        C698   1.402       .  A
C697        C702   1.397       .  A
C697        F704   1.358       .  S
C698        C699   1.400       .  A
C699        C700   1.400       .  A
C699        F706   1.358   1_655  S
C700        C701   1.411       .  A
C700        F705   1.355   1_655  S
C701        C702   1.406       .  A
C702        F703   1.358       .  S
C707        C708   1.412       .  A
C707        C712   1.397       .  A
C707        F714   1.358       .  S
C708        C709   1.413       .  A
C709        C710   1.403       .  A
C709        F716   1.357       .  S
C710        C711   1.405       .  A
C710        F715   1.357       .  S
C711        C712   1.407       .  A
C712        F713   1.358       .  S
C717        C718   1.408       .  A
C717        C722   1.398       .  A
C717        F724   1.358       .  S
C718        C719   1.403       .  A
C719        C720   1.404       .  A
C719        F726   1.356       .  S
C720        C721   1.413       .  A
C720        F725   1.357       .  S
C721        C722   1.411       .  A
C722        F723   1.358       .  S
C727        C728   1.401       .  A
C727        C732   1.401       .  A
C727        F734   1.358       .  S
C728        C729   1.402       .  A
C729        C730   1.399       .  A
C729        F736   1.358       .  S
C730        C731   1.411       .  A
C730        F735   1.358       .  S
C731        C732   1.412       .  A
C732        F733   1.356       .  S
C737        C738   1.405       .  A
C737        C742   1.397       .  A
C737        F744   1.358       .  S
C738        C739   1.403       .  A
C739        C740   1.399       .  A
C739        F746   1.358       .  S
C740        C741   1.408       .  A
C740        F745   1.358       .  S
C741        C742   1.406       .  A
C742        F743   1.358       .  S
C747        C748   1.407       .  A
C747        C752   1.401       .  A
C747        F754   1.357       .  S
C748        C749   1.410       .  A
C749        C750   1.398       .  A
C749        F756   1.356       .  S
C750        C751   1.414       .  A
C750        F755   1.355       .  S
C751        C752   1.415       .  A
C752        F753   1.358       .  S
C757        C758   1.406       .  A
C757        C762   1.398       .  A
C757        F764   1.358       .  S
C758        C759   1.401       .  A
C759        C760   1.398       .  A
C759        F766   1.358       .  S
C760        C761   1.416       .  A
C760        F765   1.358       .  S
C761        C762   1.414       .  A
C762        F763   1.356       .  S
C767        C768   1.403       .  A
C767        C772   1.395       .  A
C767        F774   1.358       .  S
C768        C769   1.404   1_565  A
C769        C770   1.395       .  A
C769        F776   1.358       .  S
C770        C771   1.406   1_545  A
C770        F775   1.358       .  S
C771        C772   1.406       .  A
C772        F773   1.358       .  S
C777        C778   1.407       .  A
C777        C782   1.409       .  A
C777        F784   1.357       .  S
C778        C779   1.406       .  A
C779        C780   1.394       .  A
C779        F786   1.358       .  S
C780        C781   1.404       .  A
C780        F785   1.358       .  S
C781        C782   1.407       .  A
C782        F783   1.357       .  S
C787        C788   1.401       .  A
C787        C792   1.397       .  A
C787        F794   1.358       .  S
C788        C789   1.407       .  A
C789        C790   1.399       .  A
C789        F796   1.357       .  S
C790        C791   1.414       .  A
C790        F795   1.355       .  S
C791        C792   1.417       .  A
C792        F793   1.358       .  S
C797        C798   1.408       .  A
C797        C802   1.399       .  A
C797        F804   1.358       .  S
C798        C799   1.406       .  A
C799        C800   1.398       .  A
C799        F806   1.357       .  S
C800        C801   1.408       .  A
C800        F805   1.357       .  S
C801        C802   1.407       .  A
C802        F803   1.358       .  S
C807        C808   1.412       .  A
C807        C812   1.400       .  A
C807        F814   1.357       .  S
C808        C809   1.417       .  A
C809        C810   1.396       .  A
C809        F816   1.357       .  S
C810        C811   1.402       .  A
C810        F815   1.358       .  S
C811        C812   1.408       .  A
C812        F813   1.357       .  S
C817        C818   1.403       .  A
C817        C822   1.398       .  A
C817        F824   1.358       .  S
C818        C819   1.405   1_546  A
C819        C820   1.399       .  A
C819        F826   1.358       .  S
C820        C821   1.409   1_564  A
C820        F825   1.358       .  S
C821        C822   1.410       .  A
C822        F823   1.358       .  S
C827        C828   1.404       .  A
C827        C832   1.397       .  A
C827        F834   1.358       .  S
C828        C829   1.404   1_546  A
C829        C830   1.396       .  A
C829        F836   1.358       .  S
C830        C831   1.405   1_554  A
C830        F835   1.358       .  S
C831        C832   1.408   1_565  A
C832        F833   1.358       .  S
C837        C838   1.414       .  A
C837        C842   1.402       .  A
C837        F844   1.357       .  S
C838        C839   1.410       .  A
C839        C840   1.398       .  A
C839        F846   1.358       .  S
C840        C841   1.408       .  A
C840        F845   1.359       .  S
C841        C842   1.401       .  A
C842        F843   1.357       .  S
C847        C848   1.411       .  A
C847        C852   1.397       .  A
C847        F854   1.358       .  S
C848        C849   1.413       .  A
C849        C850   1.402       .  A
C849        F856   1.358       .  S
C850        C851   1.404       .  A
C850        F855   1.358       .  S
C851        C852   1.407       .  A
C852        F853   1.358       .  S
C857        C858   1.408       .  A
C857        C862   1.397       .  A
C857        F864   1.358       .  S
C858        C859   1.407       .  A
C859        C860   1.396       .  A
C859        F866   1.357       .  S
C860        C861   1.404       .  A
C860        F865   1.358   1_545  S
C861        C862   1.404       .  A
C862        F863   1.358       .  S
C867        C868   1.407       .  A
C867        C872   1.399       .  A
C867        F874   1.357       .  S
C868        C869   1.407       .  A
C869        C870   1.393       .  A
C869        F876   1.358       .  S
C870        C871   1.404       .  A
C870        F875   1.358       .  S
C871        C872   1.404       .  A
C872        F873   1.357       .  S
C877        C878   1.406       .  A
C877        C882   1.400       .  A
C877        F884   1.358       .  S
C878        C879   1.402       .  A
C879        C880   1.398       .  A
C879        F886   1.358       .  S
C880        C881   1.416       .  A
C880        F885   1.358       .  S
C881        C882   1.415       .  A
C882        F883   1.356       .  S
C887        C888   1.402       .  A
C887        C892   1.404       .  A
C887        F894   1.357       .  S
C888        C889   1.407       .  A
C889        C890   1.395       .  A
C889        F896   1.358       .  S
C890        C891   1.408       .  A
C890        F895   1.358       .  S
C891        C892   1.414       .  A
C892        F893   1.358       .  S
C897        C898   1.405       .  A
C897        C902   1.396       .  A
C897        F904   1.358       .  S
C898        C899   1.405       .  A
C899        C900   1.393       .  A
C899        F906   1.356       .  S
C900        C901   1.403       .  A
C900        F905   1.357       .  S
C901        C902   1.406       .  A
C902        F903   1.358       .  S
C907        C908   1.418       .  A
C907        C912   1.398       .  A
C907        F914   1.358       .  S
C908        C909   1.416       .  A
C909        C910   1.402       .  A
C909        F916   1.354       .  S
C910        C911   1.406       .  A
C910        F915   1.358       .  S
C911        C912   1.400       .  A
C912        F913   1.358       .  S
C917        C918   1.401       .  A
C917        C922   1.403       .  A
C917        F924   1.358       .  S
C918        C919   1.406       .  A
C919        C920   1.396       .  A
C919        F926   1.358       .  S
C920        C921   1.410       .  A
C920        F925   1.358       .  S
C921        C922   1.414       .  A
C922        F923   1.357       .  S
C927        C928   1.404       .  A
C927        C932   1.399       .  A
C927        F934   1.358       .  S
C928        C929   1.403       .  A
C929        C930   1.398       .  A
C929        F936   1.358       .  S
C930        C931   1.410       .  A
C930        F935   1.358       .  S
C931        C932   1.409       .  A
C932        F933   1.358       .  S
C937        C938   1.405       .  A
C937        C942   1.395       .  A
C937        F944   1.356       .  S
C938        C939   1.405       .  A
C939        C940   1.398       .  A
C939        F946   1.358       .  S
C940        C941   1.408       .  A
C940        F945   1.357       .  S
C941        C942   1.407       .  A
C942        F943   1.357       .  S
C947        C948   1.404       .  A
C947        C952   1.394       .  A
C947        F954   1.358       .  S
C948        C949   1.406       .  A
C949        C950   1.406       .  A
C949        F956   1.357       .  S
C950        C951   1.405       .  A
C950        F955   1.357       .  S
C951        C952   1.406       .  A
C952        F953   1.358       .  S
C957        C958   1.415       .  A
C957        C962   1.399       .  A
C957        F964   1.355       .  S
C958        C959   1.417       .  A
C959        C960   1.400       .  A
C959        F966   1.358       .  S
C960        C961   1.402       .  A
C960        F965   1.358       .  S
C961        C962   1.406       .  A
C962        F963   1.358       .  S
C967        C968   1.406       .  A
C967        C972   1.396       .  A
C967        F974   1.357       .  S
C968        C969   1.406       .  A
C969        C970   1.396       .  A
C969        F976   1.358       .  S
C970        C971   1.405       .  A
C970        F975   1.358       .  S
C971        C972   1.406       .  A
C972        F973   1.356       .  S
C977        C978   1.408       .  A
C977        C982   1.402       .  A
C977        F984   1.358       .  S
C978        C979   1.409       .  A
C979        C980   1.405       .  A
C979        F986   1.357       .  S
C980        C981   1.411       .  A
C980        F985   1.357       .  S
C981        C982   1.408       .  A
C982        F983   1.358       .  S
C987        C988   1.416       .  A
C987        C992   1.400       .  A
C987        F994   1.358       .  S
C988        C989   1.415       .  A
C989        C990   1.399       .  A
C989        F996   1.356       .  S
C990        C991   1.405       .  A
C990        F995   1.358       .  S
C991        C992   1.403       .  A
C992        F993   1.358       .  S
C997        C998   1.407   1_554  A
C997       C1002   1.397       .  A
C997       F1004   1.358       .  S
C998        C999   1.407       .  A
C999       C1000   1.397       .  A
C999       F1006   1.358       .  S
C1000      C1001   1.404       .  A
C1000      F1005   1.358       .  S
C1001      C1002   1.406   1_556  A
C1002      F1003   1.358       .  S
C1007      C1008   1.407       .  A
C1007      C1012   1.395       .  A
C1007      F1014   1.358       .  S
C1008      C1009   1.402       .  A
C1009      C1010   1.403       .  A
C1009      F1016   1.357       .  S
C1010      C1011   1.413       .  A
C1010      F1015   1.358       .  S
C1011      C1012   1.408       .  A
C1012      F1013   1.358       .  S
C1017      C1018   1.402       .  A
C1017      C1022   1.402       .  A
C1017      F1024   1.357       .  S
C1018      C1019   1.410       .  A
C1019      C1020   1.397       .  A
C1019      F1026   1.358       .  S
C1020      C1021   1.410       .  A
C1020      F1025   1.358       .  S
C1021      C1022   1.414       .  A
C1022      F1023   1.357       .  S
C1027      C1028   1.405       .  A
C1027      C1032   1.397       .  A
C1027      F1034   1.358       .  S
C1028      C1029   1.406       .  A
C1029      C1030   1.398       .  A
C1029      F1036   1.358       .  S
C1030      C1031   1.406       .  A
C1030      F1035   1.358       .  S
C1031      C1032   1.406       .  A
C1032      F1033   1.358       .  S
C1037      C1038   1.401       .  A
C1037      C1042   1.401       .  A
C1037      F1044   1.357       .  S
C1038      C1039   1.408       .  A
C1039      C1040   1.398       .  A
C1039      F1046   1.358       .  S
C1040      C1041   1.409       .  A
C1040      F1045   1.358       .  S
C1041      C1042   1.414       .  A
C1042      F1043   1.358       .  S
C1047      C1048   1.405       .  A
C1047      C1052   1.394       .  A
C1047      F1054   1.358       .  S
C1048      C1049   1.403       .  A
C1049      C1050   1.402       .  A
C1049      F1056   1.358       .  S
C1050      C1051   1.413       .  A
C1050      F1055   1.358       .  S
C1051      C1052   1.409       .  A
C1052      F1053   1.358       .  S
