geometry optimzed in LAMMPS
_audit_creation_date              2020-12-01 
_audit_creation_method            'lammps2cif' 
_symmetry_space_group_name_H-M    'P1' 
_symmetry_Int_Tables_number       1 
_symmetry_cell_setting            triclinic 
loop_ 
_symmetry_equiv_pos_as_xyz 
  x,y,z 
_cell_length_a                    60.55036399 
_cell_length_b                    60.5162184570712 
_cell_length_c                    51.63422351506238 
_cell_angle_alpha                 90.00057986913717 
_cell_angle_beta                  89.98791370983122 
_cell_angle_gamma                 128.00097883744118 
loop_ 
_atom_site_label 
_atom_site_type_symbol 
_atom_site_fract_x 
_atom_site_fract_y 
_atom_site_fract_z 
_atom_site_charge 
N1          N  0.13405435  0.34437660  0.47746110    -0.26000
N2          N  0.13778618  0.36759340  0.47077938    -0.33900
C3          C  0.11852577  0.36134528  0.45299026     0.02300
C4          C  0.10189850  0.33294312  0.44828782     0.08300
C5          C  0.11221880  0.32269013  0.46398353    -0.04800
H6          H  0.11720276  0.37652651  0.44370741     0.09000
H7          H  0.10478824  0.30125363  0.46521832     0.10200
Cu8        Cu  0.16989451  0.40740626  0.48416954     0.44200
Cu9        Cu  0.15941091  0.34363738  0.50410747     0.42000
Cu10       Cu  0.22307678  0.41283214  0.52052663     0.43900
N11         N  0.20652344  0.44549317  0.49573858    -0.33400
N12         N  0.22694501  0.44746327  0.50772922    -0.27700
C13         C  0.24850276  0.47467701  0.51150952    -0.03800
C14         C  0.24107325  0.49055625  0.50177300     0.08500
C15         C  0.21430849  0.47142183  0.49196185     0.02300
H16         H  0.26782840  0.48229003  0.52124808     0.09900
H17         H  0.20162547  0.47599628  0.48242773     0.09000
N18         N  0.21157780  0.37598868  0.53714580    -0.34900
N19         N  0.18830214  0.35072872  0.53160561    -0.27000
C20         C  0.18654441  0.33183319  0.54719505    -0.02300
C21         C  0.20980684  0.34605912  0.56313339     0.06300
C22         C  0.22518720  0.37388834  0.55632186     0.04400
H23         H  0.16940123  0.30956702  0.54722145     0.09500
H24         H  0.24453298  0.39144749  0.56503583     0.08400
N25         N  0.38167610  0.09968100  0.02876435    -0.26000
N26         N  0.40468846  0.10288033  0.03503048    -0.33900
C27         C  0.39820272  0.08312631  0.05235410     0.02300
C28         C  0.36983268  0.06674022  0.05715209     0.08300
C29         C  0.35988176  0.07770892  0.04200514    -0.04800
H30         H  0.41323544  0.08149210  0.06146818     0.09000
H31         H  0.33863190  0.07082440  0.04122334     0.10200
Cu32       Cu  0.44451598  0.13549417  0.02224982     0.44200
Cu33       Cu  0.38147365  0.12645553  0.00369098     0.42000
Cu34       Cu  0.45024503  0.19100212  0.98918131     0.43900
N35         N  0.48246225  0.17299071  0.01211537    -0.33400
N36         N  0.48449450  0.19401870  0.00142364    -0.27700
C37         C  0.51169656  0.21583991  0.99828493    -0.03800
C38         C  0.52748534  0.20798008  0.00710148     0.08500
C39         C  0.50834905  0.18069029  0.01569988     0.02300
H40         H  0.51935854  0.23562209  0.98948563     0.09900
H41         H  0.51287266  0.16750669  0.02414287     0.09000
N42         N  0.41357537  0.18028119  0.97304975    -0.34900
N43         N  0.38840778  0.15661369  0.97798864    -0.27000
C44         C  0.36954136  0.15513583  0.96265940    -0.02300
C45         C  0.38367111  0.17898328  0.94749275     0.06300
C46         C  0.41144954  0.19444623  0.95448831     0.04400
H47         H  0.34741748  0.13761419  0.96202210     0.09500
H48         H  0.42898626  0.21403392  0.94607654     0.08400
N49         N  0.13185305  0.34581996  0.02724308    -0.26000
N50         N  0.13623391  0.36942129  0.03360460    -0.33900
C51         C  0.11748580  0.36394222  0.05166613     0.02300
C52         C  0.10050481  0.33561855  0.05684859     0.08300
C53         C  0.11007525  0.32463234  0.04115157    -0.04800
H54         H  0.11691198  0.37961149  0.06095043     0.09000
H55         H  0.10241089  0.30309441  0.04045123     0.10200
Cu56       Cu  0.16892904  0.40868911  0.01976962     0.44200
Cu57       Cu  0.15705524  0.34414209  0.00129605     0.42000
Cu58       Cu  0.22229972  0.41282860  0.98551701     0.43900
N59         N  0.20600616  0.44630589  0.00832681    -0.33400
N60         N  0.22647745  0.44781089  0.99705924    -0.27700
C61         C  0.24849270  0.47486787  0.99347592    -0.03800
C62         C  0.24130494  0.49110751  0.00265518     0.08500
C63         C  0.21422008  0.47240064  0.01185607     0.02300
H64         H  0.26802993  0.48211916  0.98442762     0.09900
H65         H  0.20166426  0.47737016  0.02095986     0.09000
N66         N  0.21067764  0.37554359  0.97033470    -0.34900
N67         N  0.18692946  0.35053165  0.97558673    -0.27000
C68         C  0.18546023  0.33123903  0.96095557    -0.02300
C69         C  0.20940075  0.34498210  0.94597960     0.06300
C70         C  0.22487733  0.37290864  0.95229571     0.04400
H71         H  0.16803073  0.30906242  0.96083949     0.09500
H72         H  0.24465264  0.39018492  0.94393745     0.08400
N73         N  0.69427452  0.16954355  0.46899064    -0.26000
N74         N  0.69491410  0.19117436  0.46289207    -0.33900
C75         C  0.71345239  0.20567766  0.44357556     0.02300
C76         C  0.72495435  0.19253639  0.43732611     0.08300
C77         C  0.71242822  0.16974157  0.45372174    -0.04800
H78         H  0.71803622  0.22427400  0.43466142     0.09000
H79         H  0.71617123  0.15442675  0.45451158     0.10200
Cu80       Cu  0.66967970  0.19942280  0.48016452     0.44200
Cu81       Cu  0.66870519  0.14077680  0.49777869     0.42000
Cu82       Cu  0.61654721  0.14650068  0.52368274     0.43900
N83         N  0.63829066  0.19994908  0.49552419    -0.33400
N84         N  0.61769609  0.17949155  0.51004513    -0.27700
C85         C  0.59931673  0.18455109  0.51480684    -0.03800
C86         C  0.60911182  0.20964144  0.50310356     0.08500
C87         C  0.63391996  0.21891747  0.49116588     0.02300
H88         H  0.58045914  0.17117922  0.52626412     0.09900
H89         H  0.64731406  0.23758279  0.47946343     0.09000
N90         N  0.62279146  0.11846538  0.53741895    -0.34900
N91         N  0.64180880  0.11639475  0.52806837    -0.27000
C92         C  0.64131162  0.09729338  0.54201395    -0.02300
C93         C  0.62104944  0.08697597  0.56092334     0.06300
C94         C  0.60973361  0.10077978  0.55756686     0.04400
H95         H  0.65506760  0.09179935  0.53892882     0.09500
H96         H  0.59363160  0.09860172  0.56920736     0.08400
N97         N  0.64493158  0.12214280  0.97807838    -0.26000
N98         N  0.62414734  0.12243603  0.97085500    -0.33900
C99         C  0.60969697  0.10367713  0.95165372     0.02300
C100        C  0.62197652  0.09101458  0.94667470     0.08300
C101        C  0.64422465  0.10315533  0.96368838    -0.04800
H102        H  0.59212239  0.10017084  0.94157016     0.09000
H103        H  0.65924340  0.09906344  0.96505446     0.10200
Cu104      Cu  0.61809871  0.15024960  0.98577458     0.44200
Cu105      Cu  0.67434424  0.14889488  0.00605799     0.42000
Cu106      Cu  0.67488023  0.20674583  0.02523525     0.43900
N107        N  0.62028387  0.18400896  0.99885330    -0.33400
N108        N  0.64195524  0.20551685  0.01165113    -0.27700
C109        C  0.63785790  0.22471916  0.01561550    -0.03800
C110        C  0.61217993  0.21456039  0.00521050     0.08500
C111        C  0.60152477  0.18868986  0.99483672     0.02300
H112        H  0.65214843  0.24424199  0.02594928     0.09900
H113        H  0.58186247  0.17456197  0.98467449     0.09000
N114        N  0.70150159  0.19958325  0.04080712    -0.34900
N115        N  0.70114126  0.17827800  0.03402027    -0.27000
C116        C  0.71960917  0.17851684  0.04878209    -0.02300
C117        C  0.73203651  0.20098689  0.06555541     0.06300
C118        C  0.72014290  0.21390424  0.06008037     0.04400
H119        H  0.72320150  0.16309799  0.04777230     0.09500
H120        H  0.72414100  0.23188741  0.06980621     0.08400
C121        C  0.59886244  0.22818751  0.00546963     0.81500
N122        N  0.57049798  0.21240269  0.00631075    -0.76800
C123        C  0.55809279  0.22494368  0.00669605     0.83900
N124        N  0.57412679  0.25332446  0.00607829    -0.76800
C125        C  0.60247056  0.26921611  0.00513958     0.84000
N126        N  0.61482416  0.25660741  0.00491363    -0.78500
N127        N  0.72668239  0.44499563  0.97669209    -0.26000
N128        N  0.72260109  0.42151487  0.97042408    -0.33900
C129        C  0.74107960  0.42703575  0.95202002     0.02300
C130        C  0.75758614  0.45526464  0.94645501     0.08300
C131        C  0.74801550  0.46614954  0.96234557    -0.04800
H132        H  0.74191026  0.41146348  0.94289783     0.09000
H133        H  0.75550091  0.48762781  0.96301377     0.10200
Cu134      Cu  0.69072994  0.38228952  0.98503665     0.44200
Cu135      Cu  0.70166077  0.44649156  0.00328416     0.42000
Cu136      Cu  0.63663707  0.37788839  0.01876542     0.43900
N137        N  0.65406537  0.34469554  0.99724655    -0.33400
N138        N  0.63338957  0.34303429  0.00825744    -0.27700
C139        C  0.61184746  0.31595194  0.01261585    -0.03800
C140        C  0.61953744  0.29986431  0.00423991     0.08500
C141        C  0.64643870  0.31871154  0.99465048     0.02300
H142        H  0.59228984  0.30858663  0.02169972     0.09900
H143        H  0.65929668  0.31389512  0.98598163     0.09000
N144        N  0.64759356  0.41513313  0.03369682    -0.34900
N145        N  0.67147028  0.44015940  0.02876510    -0.27000
C146        C  0.67275723  0.45935495  0.04343770    -0.02300
C147        C  0.64853745  0.44558035  0.05809014     0.06300
C148        C  0.63311757  0.41768828  0.05151363     0.04400
H149        H  0.69030441  0.48148498  0.04389698     0.09500
H150        H  0.61329887  0.40034114  0.05974396     0.08400
O151        O  0.88295500  0.23041502  0.28163087    -0.71700
O152        O  0.93759462  0.24584935  0.22627795    -0.72700
O153        O  0.93809762  0.24677661  0.28144457    -0.61300
O154        O  0.88235956  0.22944981  0.22660332    -0.69700
O155        O  0.89980702  0.27424832  0.22600276    -0.69200
O156        O  0.95555304  0.29157842  0.28087241    -0.60500
O157        O  0.95502155  0.29063886  0.22568867    -0.73000
O158        O  0.90036200  0.27519923  0.28104168    -0.71800
Cu159      Cu  0.90967223  0.23655959  0.25400715     1.04600
Cu160      Cu  0.92833761  0.28450833  0.25336647     1.04300
C161        C  0.88307269  0.25035342  0.28995689     0.94500
C162        C  0.95475599  0.27064964  0.21723166     0.93700
C163        C  0.95536047  0.27181756  0.28989645     0.85800
C164        C  0.88231800  0.24913302  0.21778580     0.92100
N165        N  0.15406633  0.60712426  0.52708329    -0.26000
N166        N  0.15572864  0.58771124  0.53605152    -0.33900
C167        C  0.13739956  0.57403353  0.55568959     0.02300
C168        C  0.12361746  0.58540126  0.55907708     0.08300
C169        C  0.13462482  0.60629495  0.54071832    -0.04800
H170        H  0.13498600  0.55770338  0.56715690     0.09000
H171        H  0.12958833  0.62047059  0.53800944     0.10200
Cu172      Cu  0.18460944  0.58249678  0.52259284     0.44200
Cu173      Cu  0.17987613  0.63536566  0.49815983     0.42000
Cu174      Cu  0.23847774  0.63689318  0.47940050     0.43900
N175        N  0.21793736  0.58427913  0.50886384    -0.33400
N176        N  0.23848314  0.60499924  0.49447127    -0.27700
C177        C  0.25744615  0.60061437  0.49014630    -0.03800
C178        C  0.24807773  0.57571126  0.50197308     0.08500
C179        C  0.22295905  0.56586357  0.51356293     0.02300
H180        H  0.27621029  0.61410612  0.47859766     0.09900
H181        H  0.20952000  0.54692487  0.52491232     0.09000
N182        N  0.23053858  0.66295913  0.46343300    -0.34900
N183        N  0.20895608  0.66215314  0.47014049    -0.27000
C184        C  0.20884702  0.68045228  0.45543714    -0.02300
C185        C  0.23138779  0.69328919  0.43873593     0.06300
C186        C  0.24471249  0.68178846  0.44422697     0.04400
H187        H  0.19319586  0.68371668  0.45650197     0.09500
H188        H  0.26294255  0.68625890  0.43460239     0.08400
C189        C  0.26161066  0.56223954  0.50190473     0.81500
N190        N  0.24572330  0.53380931  0.50182057    -0.76800
C191        C  0.25813771  0.52125580  0.50193375     0.83900
N192        N  0.28651109  0.53723191  0.50233925    -0.76800
C193        C  0.30252006  0.56563427  0.50243031     0.84000
N194        N  0.29002103  0.57811214  0.50212438    -0.78500
N195        N  0.47839360  0.68859619  0.53127652    -0.26000
N196        N  0.45510576  0.68546023  0.53597120    -0.33900
C197        C  0.46031093  0.70424162  0.55389744     0.02300
C198        C  0.48812513  0.71998674  0.56086741     0.08300
C199        C  0.49909306  0.70961112  0.54624789    -0.04800
H200        H  0.44470216  0.70565463  0.56190354     0.09000
H201        H  0.52027069  0.71629304  0.54692712     0.10200
Cu202      Cu  0.41616447  0.65402859  0.52046472     0.44200
Cu203      Cu  0.48001067  0.66272212  0.50575080     0.42000
Cu204      Cu  0.41088063  0.59892053  0.48835945     0.43900
N205        N  0.37820731  0.61726009  0.50891246    -0.33400
N206        N  0.37621578  0.59616672  0.49847646    -0.27700
C207        C  0.34903203  0.57457328  0.49467531    -0.03800
C208        C  0.33319650  0.58264551  0.50282675     0.08500
C209        C  0.35233079  0.60984608  0.51169240     0.02300
H210        H  0.34141041  0.55467328  0.48619177     0.09900
H211        H  0.34777625  0.62302987  0.52007289     0.09000
N212        N  0.44810973  0.60920448  0.47419763    -0.34900
N213        N  0.47332074  0.63250261  0.47986019    -0.27000
C214        C  0.49241699  0.63350627  0.46527955    -0.02300
C215        C  0.47837885  0.60972868  0.44992924     0.06300
C216        C  0.45044996  0.59486304  0.45602437     0.04400
H217        H  0.51466471  0.65067796  0.46523016     0.09500
H218        H  0.43294363  0.57560096  0.44714599     0.08400
N219        N  0.37811515  0.09636679  0.47798838    -0.26000
N220        N  0.40149015  0.10026228  0.47172496    -0.33900
C221        C  0.39561130  0.08065015  0.45452140     0.02300
C222        C  0.36724027  0.06352402  0.44969485     0.08300
C223        C  0.35664084  0.07398157  0.46476934    -0.04800
H224        H  0.41105272  0.07950212  0.44560395     0.09000
H225        H  0.33513622  0.06636155  0.46560450     0.10200
Cu226      Cu  0.44103060  0.13303047  0.48483695     0.44200
Cu227      Cu  0.37736344  0.12270149  0.50362206     0.42000
Cu228      Cu  0.44690256  0.18623580  0.52156771     0.43900
N229        N  0.47914136  0.16918603  0.49675683    -0.33400
N230        N  0.48138320  0.18961196  0.50908514    -0.27700
C231        C  0.50865781  0.21085234  0.51302719    -0.03800
C232        C  0.52423558  0.20316412  0.50303162     0.08500
C233        C  0.50489638  0.17661053  0.49290869     0.02300
H234        H  0.51652286  0.23019626  0.52290307     0.09900
H235        H  0.50921145  0.16386616  0.48304147     0.09000
N236        N  0.40965439  0.17525066  0.53672242    -0.34900
N237        N  0.38440166  0.15225057  0.53060190    -0.27000
C238        C  0.36528807  0.15089738  0.54549077    -0.02300
C239        C  0.37931871  0.17408594  0.56158072     0.06300
C240        C  0.40729329  0.18902092  0.55555910     0.04400
H241        H  0.34298250  0.13394782  0.54509307     0.09500
H242        H  0.42477792  0.20809480  0.56469697     0.08400
C243        C  0.59571282  0.22326482  0.50295146     0.81500
N244        N  0.56729687  0.20745553  0.50295194    -0.76800
C245        C  0.55487232  0.22000885  0.50291300     0.83900
N246        N  0.57092595  0.24838753  0.50298400    -0.76800
C247        C  0.59927856  0.26431035  0.50298699     0.84000
N248        N  0.61166605  0.25171272  0.50290154    -0.78500
N249        N  0.72295586  0.44023153  0.53111560    -0.26000
N250        N  0.71903402  0.41669757  0.53672658    -0.33900
C251        C  0.73767511  0.42190939  0.55478191     0.02300
C252        C  0.75416039  0.45000266  0.56085400     0.08300
C253        C  0.74438481  0.46114018  0.54559261    -0.04800
H254        H  0.73861672  0.40619046  0.56335245     0.09000
H255        H  0.75182250  0.48261080  0.54542851     0.10200
Cu256      Cu  0.68715685  0.37771330  0.52182595     0.44200
Cu257      Cu  0.69763183  0.44187881  0.50495993     0.42000
Cu258      Cu  0.63305151  0.37292638  0.48793844     0.43900
N259        N  0.65062751  0.33996232  0.50984534    -0.33400
N260        N  0.62985128  0.33806478  0.49876832    -0.27700
C261        C  0.60838442  0.31086900  0.49470966    -0.03800
C262        C  0.61627393  0.29499250  0.50332019     0.08500
C263        C  0.64318363  0.31407899  0.51276117     0.02300
H264        H  0.58872153  0.30326347  0.48570817     0.09900
H265        H  0.65615252  0.30949523  0.52160991     0.09000
N266        N  0.64420119  0.41046681  0.47329635    -0.34900
N267        N  0.66777121  0.43551372  0.47889469    -0.27000
C268        C  0.66923770  0.45488165  0.46432831    -0.02300
C269        C  0.64549608  0.44124531  0.44901169     0.06300
C270        C  0.63013427  0.41322280  0.45513339     0.04400
H271        H  0.68661249  0.47707604  0.46440423     0.09500
H272        H  0.61061647  0.39594899  0.44641153     0.08400
N273        N  0.16101641  0.61322240  0.97397052    -0.26000
N274        N  0.16038149  0.59177152  0.96715872    -0.33900
C275        C  0.14119467  0.57726412  0.94829119     0.02300
C276        C  0.12927910  0.59026649  0.94317204     0.08300
C277        C  0.14226554  0.61295441  0.95970310    -0.04800
H278        H  0.13676873  0.55905776  0.93863719     0.09000
H279        H  0.13877393  0.62843700  0.96095176     0.10200
Cu280      Cu  0.18735791  0.58487701  0.98263071     0.44200
Cu281      Cu  0.18817113  0.64243504  0.00160430     0.42000
Cu282      Cu  0.24328968  0.64012252  0.02418743     0.43900
N283        N  0.22031078  0.58606101  0.99640617    -0.33400
N284        N  0.24154412  0.60705567  0.01002908    -0.27700
C285        C  0.26026696  0.60234034  0.01409841    -0.03800
C286        C  0.25006918  0.57696888  0.00287696     0.08500
C287        C  0.22468584  0.56713561  0.99194196     0.02300
H288        H  0.27950148  0.61602058  0.02498161     0.09900
H289        H  0.21070069  0.54793482  0.98107633     0.09000
N290        N  0.23665907  0.66754242  0.03863171    -0.34900
N291        N  0.21644432  0.66827490  0.03034825    -0.27000
C292        C  0.21660517  0.68703818  0.04445843    -0.02300
C293        C  0.23788057  0.69853572  0.06239732     0.06300
C294        C  0.25020903  0.68580603  0.05831124     0.04400
H295        H  0.20185598  0.69139936  0.04223537     0.09500
H296        H  0.26722363  0.68899239  0.06920742     0.08400
C297        C  0.26315680  0.56312082  0.00290684     0.81500
N298        N  0.24690041  0.53471036  0.00257559    -0.76800
C299        C  0.25887577  0.52175213  0.00281506     0.83900
N300        N  0.28720709  0.53727876  0.00324383    -0.76800
C301        C  0.30357332  0.56569177  0.00346957     0.84000
N302        N  0.29150442  0.57858841  0.00335778    -0.78500
N303        N  0.47933722  0.68968162  0.97650129    -0.26000
N304        N  0.45579290  0.68546548  0.97034601    -0.33900
C305        C  0.46139018  0.70494313  0.95312291     0.02300
C306        C  0.48976025  0.72226342  0.94828585     0.08300
C307        C  0.50064227  0.71210325  0.96326667    -0.04800
H308        H  0.44582699  0.70601860  0.94439948     0.09000
H309        H  0.52226056  0.72008429  0.96420903     0.10200
Cu310      Cu  0.41667441  0.65277403  0.98416348     0.44200
Cu311      Cu  0.48082671  0.66421990  0.00233080     0.42000
Cu312      Cu  0.41204566  0.59990059  0.02036824     0.43900
N313        N  0.37907936  0.61647144  0.99654390    -0.33400
N314        N  0.37714941  0.59605400  0.00852053    -0.27700
C315        C  0.34994435  0.57469068  0.01272479    -0.03800
C316        C  0.33416155  0.58235443  0.00325101     0.08500
C317        C  0.35326132  0.60896020  0.99319849     0.02300
H318        H  0.34229067  0.55533485  0.02245637     0.09900
H319        H  0.34873317  0.62169958  0.98369198     0.09000
N320        N  0.44966506  0.61218569  0.03578002    -0.34900
N321        N  0.47463013  0.63557647  0.02965909    -0.27000
C322        C  0.49410279  0.63786881  0.04476050    -0.02300
C323        C  0.48058918  0.61485157  0.06099206     0.06300
C324        C  0.45256793  0.59904675  0.05485452     0.04400
H325        H  0.51627873  0.65525520  0.04430948     0.09500
H326        H  0.43541388  0.57976926  0.06401303     0.08400
O327        O  0.58020962  0.88874574  0.78191849    -0.71700
O328        O  0.59463222  0.94308832  0.72679830    -0.72700
O329        O  0.59646854  0.94397442  0.78196525    -0.61300
O330        O  0.57836390  0.88788351  0.72662986    -0.69700
O331        O  0.53361874  0.87040179  0.72791863    -0.69200
O332        O  0.55169643  0.92641639  0.78321431    -0.60500
O333        O  0.54985348  0.92557787  0.72809506    -0.73000
O334        O  0.53543760  0.87125957  0.78314878    -0.71800
Cu335      Cu  0.58899467  0.91652754  0.75428000     1.04600
Cu336      Cu  0.54108025  0.89778172  0.75564690     1.04300
C337        C  0.55557506  0.87165208  0.79129606     0.94500
C338        C  0.57449510  0.94276074  0.71877103     0.93700
C339        C  0.57688041  0.94392355  0.79126541     0.85800
C340        C  0.55318895  0.87049739  0.71849343     0.92100
O341        O  0.59612012  0.53473927  0.28214338    -0.71700
O342        O  0.57109151  0.56084071  0.22600841    -0.72700
O343        O  0.57012937  0.56091544  0.28111831    -0.61300
O344        O  0.59694594  0.53461528  0.22693493    -0.69700
O345        O  0.55502947  0.49277932  0.22657095    -0.69200
O346        O  0.52823748  0.51905616  0.28081098    -0.60500
O347        O  0.52913994  0.51903511  0.22564386    -0.73000
O348        O  0.55425455  0.49285928  0.28185334    -0.71800
Cu349      Cu  0.58504516  0.54923487  0.25406706     1.04600
Cu350      Cu  0.54018826  0.50444501  0.25371546     1.04300
C351        C  0.57907862  0.50979740  0.29090129     0.94500
C352        C  0.54627263  0.54401567  0.21697468     0.93700
C353        C  0.54501674  0.54405178  0.28951131     0.85800
C354        C  0.58009420  0.50969140  0.21808409     0.92100
O355        O  0.26248040  0.84704231  0.22365490    -0.71700
O356        O  0.28008917  0.90174955  0.27983265    -0.72700
O357        O  0.28018136  0.90261489  0.22455455    -0.61300
O358        O  0.26227790  0.84592348  0.27865037    -0.69700
O359        O  0.30671994  0.86231153  0.27847998    -0.69200
O360        O  0.32466757  0.91913268  0.22438449    -0.60500
O361        O  0.32453349  0.91815915  0.27972313    -0.73000
O362        O  0.30696492  0.86352390  0.22347765    -0.71800
Cu363      Cu  0.26971763  0.87380336  0.25169422     1.04600
Cu364      Cu  0.31731032  0.89140595  0.25152820     1.04300
C365        C  0.28198875  0.84677551  0.21478013     0.94500
C366        C  0.30500786  0.91835522  0.28872642     0.93700
C367        C  0.30510756  0.91945864  0.21574787     0.85800
C368        C  0.28165740  0.84514426  0.28692486     0.92100
O369        O  0.97988438  0.56249485  0.78016133    -0.71700
O370        O  0.92302038  0.54257510  0.72514635    -0.72700
O371        O  0.92390963  0.54406818  0.78042620    -0.61300
O372        O  0.97910320  0.56121404  0.72493069    -0.69700
O373        O  0.96326848  0.51693464  0.72582462    -0.69200
O374        O  0.90803605  0.49977987  0.78142731    -0.60500
O375        O  0.90721415  0.49831454  0.72615913    -0.73000
O376        O  0.96397642  0.51819306  0.78100875    -0.71800
Cu377      Cu  0.95203062  0.55414339  0.75262857     1.04600
Cu378      Cu  0.93506501  0.50675199  0.75363541     1.04300
C379        C  0.98069431  0.54337613  0.78926728     0.94500
C380        C  0.90632878  0.51733928  0.71695299     0.93700
C381        C  0.90747830  0.51931315  0.78973492     0.85800
C382        C  0.97975227  0.54175046  0.71662765     0.93100
O383        O  0.33478247  0.27318060  0.78172285    -0.71700
O384        O  0.30882825  0.30030605  0.72750404    -0.72700
O385        O  0.30908853  0.29967175  0.78257453    -0.61300
O386        O  0.33452186  0.27363538  0.72655100    -0.69700
O387        O  0.29243650  0.23196785  0.72662418    -0.69200
O388        O  0.26709528  0.25787904  0.78235283    -0.60500
O389        O  0.26684044  0.25852543  0.72748730    -0.73000
O390        O  0.29271121  0.23148286  0.78158567    -0.71800
Cu391      Cu  0.32332369  0.28820628  0.75458222     1.04600
Cu392      Cu  0.27832269  0.24352660  0.75449690     1.04300
C393        C  0.31772676  0.24811285  0.79020169     0.94500
C394        C  0.28373017  0.28361072  0.71905014     0.93700
C395        C  0.28409599  0.28274053  0.79123165     0.85800
C396        C  0.31738222  0.24865664  0.71785364     0.92100
C397        C  0.52269201  0.78153471  0.89183805     0.18300
C398        C  0.51091086  0.77102124  0.86728249    -0.10800
C399        C  0.51866027  0.78937876  0.84659867    -0.11700
C400        C  0.53823802  0.81837631  0.85034786     0.19900
C401        C  0.55015628  0.82893848  0.87488125    -0.13700
C402        C  0.54238811  0.81054411  0.89560781    -0.12000
C403        C  0.54537903  0.83721551  0.82919597     0.00800
C404        C  0.55043579  0.85284401  0.81163299    -0.32000
C405        C  0.51378490  0.76238181  0.91311817     0.02200
C406        C  0.50414072  0.74479650  0.92983737    -0.33700
H407        H  0.49556358  0.74863665  0.86418046     0.13300
H408        H  0.50921696  0.78098462  0.82775883     0.13100
H409        H  0.56522550  0.85134279  0.87802250     0.12900
H410        H  0.55153146  0.81891180  0.91454013     0.12000
C411        C  0.52338032  0.57198642  0.15888952     0.18300
C412        C  0.51212324  0.58585140  0.16474539    -0.10800
C413        C  0.50493539  0.59601414  0.14479583    -0.11700
C414        C  0.50900887  0.59239810  0.11888857     0.19900
C415        C  0.52027637  0.57854567  0.11303571    -0.13700
C416        C  0.52746240  0.56838289  0.13298267    -0.12000
C417        C  0.50080413  0.60206648  0.09831865     0.00800
C418        C  0.49258551  0.60883354  0.08111877    -0.32000
C419        C  0.53091725  0.56165736  0.17943889     0.02200
C420        C  0.53761610  0.55336424  0.19663849    -0.33700
H421        H  0.50888082  0.58876842  0.18469856     0.13300
H422        H  0.49609823  0.60655514  0.14955673     0.13100
H423        H  0.52337781  0.57549372  0.09307940     0.12900
H424        H  0.53615635  0.55770646  0.12821518     0.12000
C425        C  0.25452123  0.75386037  0.11902472     0.18300
C426        C  0.24419353  0.74414649  0.14412213    -0.10800
C427        C  0.24942796  0.76298803  0.16348878    -0.11700
C428        C  0.26499348  0.79160546  0.15782352     0.19900
C429        C  0.27521509  0.80129609  0.13269636    -0.13700
C430        C  0.26998076  0.78245545  0.11333094    -0.12000
C431        C  0.27071907  0.81103834  0.17783822     0.00800
C432        C  0.27575802  0.82733666  0.19468898    -0.32000
C433        C  0.24919310  0.73450649  0.09911287     0.02200
C434        C  0.24440356  0.71821816  0.08236765    -0.33700
H435        H  0.23217154  0.72206508  0.14871364     0.13300
H436        H  0.24143483  0.75527956  0.18285758     0.13100
H437        H  0.28727927  0.82338393  0.12811295     0.12900
H438        H  0.27801505  0.79016940  0.09397256     0.12000
C439        C  0.03562450  0.56072199  0.84692124     0.18300
C440        C  0.04545031  0.58274288  0.86436997    -0.10800
C441        C  0.06395473  0.58814698  0.88421290    -0.11700
C442        C  0.07273660  0.57155314  0.88674610     0.19900
C443        C  0.06280857  0.54945336  0.86937819    -0.13700
C444        C  0.04430740  0.54405024  0.84953843    -0.12000
C445        C  0.09221038  0.57745630  0.90689322     0.00800
C446        C  0.10889360  0.58290626  0.92354345    -0.32000
C447        C  0.01663993  0.55519023  0.82638739     0.02200
C448        C  0.00050274  0.55015347  0.80929682    -0.33700
H449        H  0.03887499  0.59576074  0.86259367     0.13300
H450        H  0.07149103  0.60530820  0.89749636     0.13100
H451        H  0.06944917  0.53648739  0.87110787     0.12900
H452        H  0.03684048  0.52694052  0.83621128     0.12000
C453        C  0.85062301  0.49672614  0.65882877     0.18300
C454        C  0.82347167  0.48755195  0.66427477    -0.10800
C455        C  0.80459106  0.48006282  0.64407165    -0.11700
C456        C  0.81272987  0.48172486  0.61826991     0.19900
C457        C  0.83989898  0.49095704  0.61282188    -0.13700
C458        C  0.85877794  0.49844581  0.63302251    -0.12000
C459        C  0.79289029  0.47289525  0.59751519     0.00800
C460        C  0.77565854  0.46377123  0.58044907    -0.32000
C461        C  0.87002227  0.50415632  0.67965587     0.02200
C462        C  0.88643870  0.51025764  0.69686173    -0.33700
H463        H  0.81686273  0.48606410  0.68411955     0.13300
H464        H  0.78360239  0.47278354  0.64857702     0.13100
H465        H  0.84641340  0.49216372  0.59299150     0.12900
H466        H  0.87967077  0.50544366  0.62852766     0.12000
C467        C  0.60503719  0.48576538  0.35001222     0.18300
C468        C  0.59404633  0.48191667  0.37496162    -0.10800
C469        C  0.60316614  0.47411834  0.39538805    -0.11700
C470        C  0.62336395  0.47015436  0.39100944     0.19900
C471        C  0.63438919  0.47405428  0.36606598    -0.13700
C472        C  0.62526961  0.48185214  0.34563994    -0.12000
C473        C  0.63225327  0.46144108  0.41192855     0.00800
C474        C  0.63890115  0.45306966  0.42914186    -0.32000
C475        C  0.59563731  0.49379246  0.32895635     0.02200
C476        C  0.58794529  0.50080904  0.31143988    -0.33700
H477        H  0.57840718  0.48488565  0.37860688     0.13300
H478        H  0.59439783  0.47107256  0.41454626     0.13100
H479        H  0.64993223  0.47095864  0.36239247     0.12900
H480        H  0.63394025  0.48477004  0.32645519     0.12000
C481        C  0.33901335  0.21886403  0.66034709     0.18300
C482        C  0.35769817  0.21290259  0.66475493    -0.10800
C483        C  0.36432863  0.20230976  0.64469793    -0.11700
C484        C  0.35228682  0.19757525  0.62012284     0.19900
C485        C  0.33341772  0.20331197  0.61579605    -0.13700
C486        C  0.32678891  0.21390128  0.63584714    -0.12000
C487        C  0.36002586  0.18775371  0.59918782     0.00800
C488        C  0.36784096  0.18072328  0.58178685    -0.32000
C489        C  0.33235944  0.23006252  0.68087167     0.02200
C490        C  0.32611052  0.23903278  0.69783472    -0.33700
H491        H  0.36724735  0.21659117  0.68361453     0.13300
H492        H  0.37901000  0.19804368  0.64828347     0.13100
H493        H  0.32402823  0.19982996  0.59688659     0.12900
H494        H  0.31227215  0.21837035  0.63220691     0.12000
C495        C  0.32217388  0.97042784  0.34922707     0.18300
C496        C  0.31547367  0.95951954  0.37446148    -0.10800
C497        C  0.32211495  0.97709492  0.39565968    -0.11700
C498        C  0.33545413  0.00568603  0.39174374     0.19900
C499        C  0.34193936  0.01651447  0.36649493    -0.13700
C500        C  0.33531486  0.99896112  0.34532126    -0.12000
C501        C  0.34370827  0.02428937  0.41350190     0.00800
C502        C  0.35289591  0.04137761  0.43071873    -0.32000
C503        C  0.31602974  0.95248142  0.32744102     0.02200
C504        C  0.31105638  0.93721517  0.30949237    -0.33700
H505        H  0.30536211  0.93751150  0.37775810     0.13300
H506        H  0.31713376  0.96846916  0.41506864     0.13100
H507        H  0.35240004  0.03859705  0.36320002     0.12900
H508        H  0.34066165  0.00768643  0.32594436     0.12000
C509        C  0.53382706  0.81499491  0.66036397     0.18300
C510        C  0.50757546  0.78841485  0.66032428    -0.10800
C511        C  0.50012027  0.76958762  0.64006928    -0.11700
C512        C  0.51883626  0.77713787  0.61964608     0.19900
C513        C  0.54518324  0.80364920  0.61974583    -0.13700
C514        C  0.55265054  0.82250276  0.64003186    -0.12000
C515        C  0.51052679  0.75789462  0.59837873     0.00800
C516        C  0.50163700  0.74106333  0.58092561    -0.32000
C517        C  0.54116652  0.83460182  0.68103738     0.02200
C518        C  0.54680312  0.85090909  0.69825157    -0.33700
H519        H  0.49279402  0.78231359  0.67585852     0.13300
H520        H  0.47965751  0.74921739  0.64023071     0.13100
H521        H  0.55983525  0.80982134  0.60407127     0.12900
H522        H  0.57299980  0.84297866  0.63976713     0.12000
C523        C  0.51967137  0.56937005  0.34790825     0.18300
C524        C  0.50650129  0.55197809  0.36960514    -0.10800
C525        C  0.49907707  0.56075719  0.39065619    -0.11700
C526        C  0.50481675  0.58700740  0.39016162     0.19900
C527        C  0.51774438  0.60428634  0.36835844    -0.13700
C528        C  0.52517187  0.59550546  0.34730142    -0.12000
C529        C  0.49711376  0.59602377  0.41184545     0.00800
C530        C  0.48960367  0.60293590  0.42962679    -0.32000
C531        C  0.52810130  0.56064641  0.32660946     0.02200
C532        C  0.53562432  0.55320392  0.30934181    -0.33700
H533        H  0.50214413  0.53173312  0.37031674     0.13300
H534        H  0.48896530  0.54714044  0.40733099     0.13100
H535        H  0.52216415  0.62455984  0.36767920     0.12900
H536        H  0.53534891  0.60914662  0.33065130     0.12000
C537        C  0.26341840  0.78765165  0.34212150     0.18300
C538        C  0.23905455  0.75976324  0.34052493    -0.10800
C539        C  0.23272661  0.74062844  0.36009192    -0.11700
C540        C  0.25072545  0.74926901  0.38136528     0.19900
C541        C  0.27515624  0.77711019  0.38287075    -0.13700
C542        C  0.28148052  0.79623257  0.36331622    -0.12000
C543        C  0.24408763  0.72965928  0.40167943     0.00800
C544        C  0.23844983  0.71320614  0.41867056    -0.32000
C545        C  0.26972982  0.80758542  0.32229022     0.02200
C546        C  0.27515471  0.82463898  0.30604905    -0.33700
H547        H  0.22490582  0.75286187  0.32425349     0.13300
H548        H  0.21378336  0.71916442  0.35868783     0.13100
H549        H  0.28924918  0.78405563  0.39919522     0.12900
H550        H  0.30036342  0.81772567  0.36478826     0.12000
C551        C  0.06959414  0.56880720  0.61736151     0.18300
C552        C  0.04053424  0.54850772  0.61459093    -0.10800
C553        C  0.02258993  0.54327978  0.63493113    -0.11700
C554        C  0.03358556  0.55831263  0.65817010     0.19900
C555        C  0.06264562  0.57868913  0.66091116    -0.13700
C556        C  0.08059360  0.58391863  0.64056613    -0.12000
C557        C  0.01503963  0.55275283  0.67914785     0.00800
C558        C  0.99914467  0.54781678  0.69644340    -0.32000
C559        C  0.08812029  0.57409121  0.59648045     0.02200
C560        C  0.10400360  0.57887943  0.57923797    -0.33700
H561        H  0.03176808  0.53670319  0.59675398     0.13300
H562        H  0.00016693  0.52749281  0.63255874     0.13100
H563        H  0.07141099  0.59046937  0.67875970     0.12900
H564        H  0.10301953  0.59968312  0.64294421     0.12000
C565        C  0.85349086  0.50235216  0.84823910     0.18300
C566        C  0.82584325  0.49163784  0.84282375    -0.10800
C567        C  0.80715807  0.48458927  0.86307592    -0.11700
C568        C  0.81600492  0.48824240  0.88888168     0.19900
C569        C  0.84376356  0.49932665  0.89429591    -0.13700
C570        C  0.86245229  0.50637719  0.87404039    -0.12000
C571        C  0.79621064  0.47911458  0.90971315     0.00800
C572        C  0.77898406  0.46949048  0.92681959    -0.32000
C573        C  0.87242810  0.50857104  0.82738793     0.02200
C574        C  0.88827192  0.51344377  0.81005427    -0.33700
H575        H  0.81863718  0.48839260  0.82297573     0.13300
H576        H  0.78571758  0.47588187  0.85862337     0.13100
H577        H  0.85082631  0.50209457  0.91415040     0.12900
H578        H  0.88375383  0.51460942  0.87849596     0.12000
C579        C  0.60643186  0.48635752  0.15879510     0.18300
C580        C  0.59867096  0.48716436  0.13343961    -0.10800
C581        C  0.60804888  0.48019203  0.11253949    -0.11700
C582        C  0.62527389  0.47241379  0.11688067     0.19900
C583        C  0.63296239  0.47153021  0.14223925    -0.13700
C584        C  0.62358601  0.47849956  0.16313449    -0.12000
C585        C  0.63455511  0.46472470  0.09545098     0.00800
C586        C  0.64160701  0.45701525  0.07800273    -0.32000
C587        C  0.59706076  0.49390127  0.18027153     0.02200
C588        C  0.58932956  0.50075980  0.19788007    -0.33700
H589        H  0.58542238  0.49321391  0.12983484     0.13300
H590        H  0.60185037  0.48082497  0.09304187     0.13100
H591        H  0.64615817  0.46541924  0.14585286     0.12900
H592        H  0.62973369  0.47780158  0.18263526     0.12000
C593        C  0.78760932  0.22024677  0.12315334     0.18300
C594        C  0.77919531  0.20115391  0.14342399    -0.10800
C595        C  0.79822032  0.20702463  0.16288265    -0.11700
C596        C  0.82576258  0.23202145  0.16217082     0.19900
C597        C  0.83411711  0.25119605  0.14199836    -0.13700
C598        C  0.81509514  0.24532630  0.12254308    -0.12000
C599        C  0.84552004  0.23789200  0.18194770     0.00800
C600        C  0.86226486  0.24293871  0.19833567    -0.32000
C601        C  0.76818068  0.21391904  0.10282708     0.02200
C602        C  0.75183040  0.20825003  0.08575878    -0.33700
H603        H  0.75800576  0.18169017  0.14410255     0.13300
H604        H  0.79151185  0.19204072  0.17837857     0.13100
H605        H  0.85534962  0.27059125  0.14124225     0.12900
H606        H  0.82185048  0.26024343  0.10697341     0.12000
C607        C  0.59347556  0.99907849  0.84863324     0.18300
C608        C  0.61060907  0.00374183  0.86958382    -0.10800
C609        C  0.61569246  0.02198759  0.88959235    -0.11700
C610        C  0.60368134  0.03572454  0.88883498     0.19900
C611        C  0.58654271  0.03107757  0.86788758    -0.13700
C612        C  0.58145531  0.01281954  0.84786662    -0.12000
C613        C  0.60926508  0.05479185  0.90937217     0.00800
C614        C  0.61464691  0.07106548  0.92649276    -0.32000
C615        C  0.58803455  0.98002352  0.82811897     0.02200
C616        C  0.58318664  0.96375387  0.81118576    -0.33700
H617        H  0.62001465  0.99325783  0.87046597     0.13300
H618        H  0.62901616  0.02541134  0.90562610     0.13100
H619        H  0.57715814  0.04158216  0.86701191     0.12900
H620        H  0.56814597  0.00940210  0.83182338     0.12000
C621        C  0.78434169  0.21646741  0.38216323     0.18300
C622        C  0.81271842  0.23321606  0.38914480    -0.10800
C623        C  0.83315212  0.24091602  0.37053888    -0.11700
C624        C  0.82532254  0.23191766  0.34483697     0.19900
C625        C  0.79696866  0.21535226  0.33781748    -0.13700
C626        C  0.77654003  0.20765254  0.35641930    -0.12000
C627        C  0.84623854  0.23921681  0.32575918     0.00800
C628        C  0.86330394  0.24464476  0.30955146    -0.32000
C629        C  0.76325328  0.20804817  0.40145550     0.02200
C630        C  0.74571214  0.20091247  0.41775881    -0.33700
H631        H  0.81901961  0.24016353  0.40898065     0.13300
H632        H  0.85499181  0.25370532  0.37621633     0.13100
H633        H  0.79064519  0.20824314  0.31801897     0.12900
H634        H  0.75468388  0.19470202  0.35077363     0.12000
C635        C  0.59018954  0.99596224  0.66023722     0.18300
C636        C  0.57421206  0.00531951  0.65674680    -0.10800
C637        C  0.58018811  0.02334164  0.63620897    -0.11700
C638        C  0.60215269  0.03206876  0.61907274     0.19900
C639        C  0.61804974  0.02262086  0.62252609    -0.13700
C640        C  0.61207779  0.00461072  0.64305048    -0.12000
C641        C  0.60861979  0.05098936  0.59818530     0.00800
C642        C  0.61424215  0.06719655  0.58098317    -0.32000
C643        C  0.58419122  0.97747466  0.68136113     0.02200
C644        C  0.57960517  0.96179923  0.69869835    -0.33700
H645        H  0.55721875  0.99874385  0.66989900     0.13300
H646        H  0.56777495  0.03053711  0.63374394     0.13100
H647        H  0.63509495  0.02924690  0.60942315     0.12900
H648        H  0.62454601  0.99748050  0.64554881     0.12000
C649        C  0.00772596  0.28764340  0.15786976     0.18300
C650        C  0.03632215  0.30138365  0.16206748    -0.10800
C651        C  0.05426722  0.30885807  0.14103921    -0.11700
C652        C  0.04371730  0.30261813  0.11570565     0.19900
C653        C  0.01506957  0.28858621  0.11152045    -0.13700
C654        C  0.99712119  0.28110448  0.13255132    -0.12000
C655        C  0.06254706  0.31185262  0.09406662     0.00800
C656        C  0.07927724  0.32148928  0.07656514    -0.32000
C657        C  0.98941936  0.28107189  0.17939019     0.02200
C658        C  0.97380734  0.27611453  0.19696002    -0.33700
H659        H  0.04478960  0.30663455  0.18153407     0.13300
H660        H  0.07640858  0.31984555  0.14450484     0.13100
H661        H  0.00669705  0.28379382  0.09202361     0.12900
H662        H  0.97506810  0.27056720  0.12905703     0.12000
C663        C  0.23445629  0.31860293  0.88890545     0.18300
C664        C  0.22674581  0.29156835  0.88737214    -0.10800
C665        C  0.23728245  0.28481677  0.86743362    -0.11700
C666        C  0.25556637  0.30508650  0.84899684     0.19900
C667        C  0.26325630  0.33211589  0.85053167    -0.13700
C668        C  0.25272372  0.33886450  0.87046203    -0.12000
C669        C  0.26633111  0.29808935  0.82848798     0.00800
C670        C  0.27486872  0.29161023  0.81138287    -0.32000
C671        C  0.22396122  0.32578030  0.90949811     0.02200
C672        C  0.21638305  0.33337783  0.92646100    -0.33700
H673        H  0.21267140  0.27578020  0.90157120     0.13300
H674        H  0.23120549  0.26384517  0.86639509     0.13100
H675        H  0.27736853  0.34792787  0.83636401     0.12900
H676        H  0.25884361  0.35985375  0.87152297     0.12000
C677        C  0.35600376  0.20088586  0.88832035     0.18300
C678        C  0.36498411  0.20193654  0.86300689    -0.10800
C679        C  0.35749377  0.21147457  0.84272106    -0.11700
C680        C  0.34101793  0.22002386  0.84767839     0.19900
C681        C  0.33192327  0.21882117  0.87296294    -0.13700
C682        C  0.33940674  0.20928852  0.89323331    -0.12000
C683        C  0.33346399  0.23009788  0.82692405     0.00800
C684        C  0.32665521  0.23847602  0.80993466    -0.32000
C685        C  0.36445023  0.19195881  0.90934701     0.02200
C686        C  0.37248969  0.18545521  0.92694803    -0.33700
H687        H  0.37790306  0.19557338  0.85899712     0.13300
H688        H  0.36463089  0.21230113  0.82324537     0.13100
H689        H  0.31916489  0.22536422  0.87701578     0.12900
H690        H  0.33242200  0.20864866  0.91273317     0.12000
C691        C  0.33535563  0.00841273  0.11463533     0.18300
C692        C  0.34076479  0.01853181  0.14009876    -0.10800
C693        C  0.33390128  0.00052423  0.16090635    -0.11700
C694        C  0.32160586  0.97228811  0.15637552     0.19900
C695        C  0.31571936  0.96202954  0.13092819    -0.13700
C696        C  0.32259840  0.98005646  0.11010038    -0.12000
C697        C  0.31573206  0.95406612  0.17775583     0.00800
C698        C  0.31105323  0.93864580  0.19541640    -0.32000
C699        C  0.34464666  0.02758272  0.09327158     0.02200
C700        C  0.35481302  0.04483744  0.07619446    -0.33700
H701        H  0.35078209  0.04045049  0.14383577     0.13300
H702        H  0.33857046  0.00870527  0.18047637     0.13100
H703        H  0.30623316  0.94023855  0.12717965     0.12900
H704        H  0.31847765  0.97202802  0.09049592     0.12000
C705        C  0.00834039  0.28824743  0.34900228     0.18300
C706        C  0.03744861  0.30705652  0.34568151    -0.10800
C707        C  0.05526675  0.31328405  0.36644199    -0.11700
C708        C  0.04411191  0.30074250  0.39065795     0.19900
C709        C  0.01498551  0.28173691  0.39396308    -0.13700
C710        C  0.99713573  0.27548692  0.37316198    -0.12000
C711        C  0.06273349  0.30866379  0.41222339     0.00800
C712        C  0.07988469  0.31810436  0.42933731    -0.32000
C713        C  0.99003161  0.28244201  0.32775988     0.02200
C714        C  0.97452214  0.27772146  0.31019689    -0.33700
H715        H  0.04635960  0.31709139  0.32712657     0.13300
H716        H  0.07774337  0.32815212  0.36370356     0.13100
H717        H  0.00610563  0.27205164  0.41263468     0.12900
H718        H  0.97465199  0.26094572  0.37596823     0.12000
C719        C  0.23430464  0.32026975  0.62165261     0.18300
C720        C  0.21734311  0.30504819  0.64309723    -0.10800
C721        C  0.22778184  0.29852362  0.66337755    -0.11700
C722        C  0.25523499  0.30723079  0.66231408     0.19900
C723        C  0.27220861  0.32253057  0.64091375    -0.13700
C724        C  0.26177808  0.32904700  0.62065043    -0.12000
C725        C  0.26577671  0.29992111  0.68283843     0.00800
C726        C  0.27429642  0.29301012  0.69958646    -0.32000
C727        C  0.22385555  0.32741795  0.60088162     0.02200
C728        C  0.21648703  0.33485802  0.58349630    -0.33700
H729        H  0.19610844  0.29824682  0.64413372     0.13300
H730        H  0.21444685  0.28662626  0.67980520     0.13100
H731        H  0.29343817  0.32931761  0.63985056     0.12900
H732        H  0.27511982  0.34092170  0.60421732     0.12000
loop_ 
_geom_bond_atom_site_label_1 
_geom_bond_atom_site_label_2 
_geom_bond_distance 
_geom_bond_site_symmetry_2 
_ccdc_geom_bond_type 
N1            N2   1.324       .  A
N1            C5   1.349       .  A
N1           Cu9   2.083       .  S
N2            C3   1.343       .  A
N2           Cu8   2.073       .  S
C3            C4   1.377       .  A
C3            H6   1.082       .  S
C4            C5   1.382       .  A
C4          C712   1.438       .  S
C5            H7   1.082       .  S
Cu8          N11   2.072       .  S
Cu9          N19   2.083       .  S
Cu10         N12   2.069       .  S
Cu10         N18   2.069       .  S
N11          N12   1.321       .  A
N11          C15   1.346       .  A
N12          C13   1.344       .  A
C13          C14   1.382       .  A
C13          H16   1.082       .  S
C14          C15   1.383       .  A
C14         C191   1.468       .  S
C15          H17   1.082       .  S
N18          N19   1.324       .  A
N18          C22   1.343       .  A
N19          C20   1.348       .  A
C20          C21   1.382       .  A
C20          H23   1.082       .  S
C21          C22   1.377       .  A
C21         C728   1.437       .  S
C22          H24   1.082       .  S
N25          N26   1.324       .  A
N25          C29   1.348       .  A
N25         Cu33   2.080       .  S
N26          C27   1.344       .  A
N26         Cu32   2.070       .  S
C27          C28   1.378       .  A
C27          H30   1.082       .  S
C28          C29   1.381       .  A
C28         C700   1.437       .  S
C29          H31   1.082       .  S
Cu32         N35   2.069       .  S
Cu33         N43   2.080   1_554  S
Cu34         N36   2.066   1_556  S
Cu34         N42   2.067       .  S
N35          N36   1.322       .  A
N35          C39   1.345       .  A
N36          C37   1.343   1_554  A
C37          C38   1.381   1_556  A
C37          H40   1.082       .  S
C38          C39   1.382       .  A
C38         C123   1.465       .  S
C39          H41   1.082       .  S
N42          N43   1.323       .  A
N42          C46   1.344       .  A
N43          C44   1.347       .  A
C44          C45   1.381       .  A
C44          H47   1.082       .  S
C45          C46   1.377       .  A
C45         C686   1.437       .  S
C46          H48   1.082       .  S
N49          N50   1.324       .  A
N49          C53   1.348       .  A
N49         Cu57   2.079       .  S
N50          C51   1.343       .  A
N50         Cu56   2.070       .  S
C51          C52   1.377       .  A
C51          H54   1.082       .  S
C52          C53   1.382       .  A
C52         C656   1.437       .  S
C53          H55   1.082       .  S
Cu56         N59   2.068       .  S
Cu57         N67   2.079   1_554  S
Cu58         N60   2.059       .  S
Cu58         N66   2.061       .  S
N59          N60   1.321   1_554  A
N59          C63   1.344       .  A
N60          C61   1.343       .  A
C61          C62   1.381   1_556  A
C61          H64   1.082       .  S
C62          C63   1.382       .  A
C62         C299   1.463       .  S
C63          H65   1.082       .  S
N66          N67   1.324       .  A
N66          C70   1.342       .  A
N67          C68   1.347       .  A
C68          C69   1.381       .  A
C68          H71   1.082       .  S
C69          C70   1.375       .  A
C69         C672   1.433       .  S
C70          H72   1.082       .  S
N73          N74   1.324       .  A
N73          C77   1.347       .  A
N73         Cu81   2.078       .  S
N74          C75   1.346       .  A
N74         Cu80   2.078       .  S
C75          C76   1.380       .  A
C75          H78   1.082       .  S
C76          C77   1.381       .  A
C76         C630   1.440       .  S
C77          H79   1.082       .  S
Cu80         N83   2.078       .  S
Cu81         N91   2.077       .  S
Cu82         N84   2.077       .  S
Cu82         N90   2.077       .  S
N83          N84   1.322       .  A
N83          C87   1.346       .  A
N84          C85   1.346       .  A
C85          C86   1.383       .  A
C85          H88   1.082       .  S
C86          C87   1.383       .  A
C86         C243   1.470       .  S
C87          H89   1.082       .  S
N90          N91   1.324       .  A
N90          C94   1.346       .  A
N91          C92   1.346       .  A
C92          C93   1.380       .  A
C92          H95   1.082       .  S
C93          C94   1.379       .  A
C93         C642   1.438       .  S
C94          H96   1.082       .  S
N97          N98   1.323       .  A
N97         C101   1.347       .  A
N97        Cu105   2.081   1_556  S
N98          C99   1.347       .  A
N98        Cu104   2.078       .  S
C99         C100   1.381       .  A
C99         H102   1.082       .  S
C100        C101   1.381       .  A
C100        C614   1.442       .  S
C101        H103   1.082       .  S
Cu104       N107   2.077       .  S
Cu105       N115   2.080       .  S
Cu106       N108   2.071       .  S
Cu106       N114   2.072       .  S
N107        N108   1.323   1_556  A
N107        C111   1.345       .  A
N108        C109   1.345       .  A
C109        C110   1.381       .  A
C109        H112   1.082       .  S
C110        C111   1.382   1_554  A
C110        C121   1.466       .  S
C111        H113   1.082       .  S
N114        N115   1.323       .  A
N114        C118   1.346       .  A
N115        C116   1.346       .  A
C116        C117   1.380       .  A
C116        H119   1.082       .  S
C117        C118   1.379       .  A
C117        C602   1.439       .  S
C118        H120   1.082       .  S
C121        N122   1.358       .  A
C121        N126   1.359       .  A
N122        C123   1.357       .  A
C123        N124   1.357       .  A
N124        C125   1.357       .  A
C125        N126   1.358       .  A
C125        C140   1.466       .  S
N127        N128   1.324       .  A
N127        C131   1.349       .  A
N127       Cu135   2.087   1_556  S
N128        C129   1.344       .  A
N128       Cu134   2.070       .  S
C129        C130   1.377       .  A
C129        H132   1.082       .  S
C130        C131   1.383       .  A
C130        C572   1.440       .  S
C131        H133   1.082       .  S
Cu134       N137   2.069       .  S
Cu135       N145   2.087       .  S
Cu136       N138   2.067       .  S
Cu136       N144   2.067       .  S
N137        N138   1.321   1_556  A
N137        C141   1.345       .  A
N138        C139   1.344       .  A
C139        C140   1.382       .  A
C139        H142   1.082       .  S
C140        C141   1.383   1_554  A
C141        H143   1.082       .  S
N144        N145   1.324       .  A
N144        C148   1.344       .  A
N145        C146   1.348       .  A
C146        C147   1.383       .  A
C146        H149   1.082       .  S
C147        C148   1.377       .  A
C147        C586   1.439       .  S
C148        H150   1.082       .  S
O151       Cu159   2.012       .  S
O151        C161   1.277       .  A
O152       Cu159   2.013       .  S
O152        C162   1.277       .  A
O153       Cu159   2.011       .  S
O153        C163   1.276       .  A
O154       Cu159   2.012       .  S
O154        C164   1.277       .  A
O155       Cu160   2.012       .  S
O155        C164   1.277       .  A
O156       Cu160   2.012       .  S
O156        C163   1.277       .  A
O157       Cu160   2.013       .  S
O157        C162   1.277       .  A
O158       Cu160   2.013       .  S
O158        C161   1.277       .  A
Cu159      Cu160   2.379       .  S
C161        C628   1.437       .  S
C162        C658   1.437       .  S
C163        C714   1.436       .  S
C164        C600   1.436       .  S
N165        N166   1.323       .  A
N165        C169   1.346       .  A
N165       Cu173   2.075       .  S
N166        C167   1.347       .  A
N166       Cu172   2.078       .  S
C167        C168   1.381       .  A
C167        H170   1.082       .  S
C168        C169   1.380       .  A
C168        C560   1.440       .  S
C169        H171   1.082       .  S
Cu172       N175   2.078       .  S
Cu173       N183   2.075       .  S
Cu174       N176   2.081       .  S
Cu174       N182   2.082       .  S
N175        N176   1.323       .  A
N175        C179   1.346       .  A
N176        C177   1.347       .  A
C177        C178   1.383       .  A
C177        H180   1.082       .  S
C178        C179   1.382       .  A
C178        C189   1.469       .  S
C179        H181   1.082       .  S
N182        N183   1.323       .  A
N182        C186   1.347       .  A
N183        C184   1.346       .  A
C184        C185   1.380       .  A
C184        H187   1.082       .  S
C185        C186   1.381       .  A
C185        C544   1.440       .  S
C186        H188   1.082       .  S
C189        N190   1.359       .  A
C189        N194   1.359       .  A
N190        C191   1.358       .  A
C191        N192   1.357       .  A
N192        C193   1.357       .  A
C193        N194   1.359       .  A
C193        C208   1.468       .  S
N195        N196   1.324       .  A
N195        C199   1.350       .  A
N195       Cu203   2.095       .  S
N196        C197   1.344       .  A
N196       Cu202   2.073       .  S
C197        C198   1.378       .  A
C197        H200   1.082       .  S
C198        C199   1.385       .  A
C198        C516   1.444       .  S
C199        H201   1.082       .  S
Cu202       N205   2.072       .  S
Cu203       N213   2.094       .  S
Cu204       N206   2.068       .  S
Cu204       N212   2.068       .  S
N205        N206   1.321       .  A
N205        C209   1.346       .  A
N206        C207   1.344       .  A
C207        C208   1.383       .  A
C207        H210   1.082       .  S
C208        C209   1.383       .  A
C209        H211   1.082       .  S
N212        N213   1.324       .  A
N212        C216   1.344       .  A
N213        C214   1.349       .  A
C214        C215   1.384       .  A
C214        H217   1.082       .  S
C215        C216   1.376       .  A
C215        C530   1.440       .  S
C216        H218   1.082       .  S
N219        N220   1.324       .  A
N219        C223   1.350       .  A
N219       Cu227   2.094       .  S
N220        C221   1.343       .  A
N220       Cu226   2.068       .  S
C221        C222   1.377       .  A
C221        H224   1.082       .  S
C222        C223   1.385       .  A
C222        C502   1.441       .  S
C223        H225   1.082       .  S
Cu226       N229   2.068       .  S
Cu227       N237   2.093       .  S
Cu228       N230   2.071       .  S
Cu228       N236   2.072       .  S
N229        N230   1.321       .  A
N229        C233   1.346       .  A
N230        C231   1.344       .  A
C231        C232   1.383       .  A
C231        H234   1.082       .  S
C232        C233   1.382       .  A
C232        C245   1.467       .  S
C233        H235   1.082       .  S
N236        N237   1.325       .  A
N236        C240   1.344       .  A
N237        C238   1.349       .  A
C238        C239   1.383       .  A
C238        H241   1.082       .  S
C239        C240   1.377       .  A
C239        C488   1.441       .  S
C240        H242   1.082       .  S
C243        N244   1.360       .  A
C243        N248   1.360       .  A
N244        C245   1.359       .  A
C245        N246   1.356       .  A
N246        C247   1.356       .  A
C247        N248   1.359       .  A
C247        C262   1.468       .  S
N249        N250   1.324       .  A
N249        C253   1.350       .  A
N249       Cu257   2.091       .  S
N250        C251   1.343       .  A
N250       Cu256   2.068       .  S
C251        C252   1.377       .  A
C251        H254   1.082       .  S
C252        C253   1.385       .  A
C252        C460   1.441       .  S
C253        H255   1.082       .  S
Cu256       N259   2.067       .  S
Cu257       N267   2.091       .  S
Cu258       N260   2.073       .  S
Cu258       N266   2.074       .  S
N259        N260   1.321       .  A
N259        C263   1.345       .  A
N260        C261   1.345       .  A
C261        C262   1.384       .  A
C261        H264   1.082       .  S
C262        C263   1.382       .  A
C263        H265   1.082       .  S
N266        N267   1.325       .  A
N266        C270   1.345       .  A
N267        C268   1.349       .  A
C268        C269   1.383       .  A
C268        H271   1.082       .  S
C269        C270   1.378       .  A
C269        C474   1.441       .  S
C270        H272   1.082       .  S
N273        N274   1.322       .  A
N273        C277   1.345       .  A
N273       Cu281   2.070   1_556  S
N274        C275   1.347       .  A
N274       Cu280   2.078       .  S
C275        C276   1.382       .  A
C275        H278   1.082       .  S
C276        C277   1.379       .  A
C276        C446   1.440       .  S
C277        H279   1.082       .  S
Cu280       N283   2.078       .  S
Cu281       N291   2.070       .  S
Cu282       N284   2.071       .  S
Cu282       N290   2.071       .  S
N283        N284   1.323   1_556  A
N283        C287   1.345       .  A
N284        C285   1.345       .  A
C285        C286   1.381       .  A
C285        H288   1.082       .  S
C286        C287   1.382   1_554  A
C286        C297   1.466       .  S
C287        H289   1.082       .  S
N290        N291   1.323       .  A
N290        C294   1.346       .  A
N291        C292   1.344       .  A
C292        C293   1.378       .  A
C292        H295   1.082       .  S
C293        C294   1.380       .  A
C293        C434   1.435       .  S
C294        H296   1.082       .  S
C297        N298   1.357       .  A
C297        N302   1.358       .  A
N298        C299   1.357       .  A
C299        N300   1.357       .  A
N300        C301   1.357       .  A
C301        N302   1.358       .  A
C301        C316   1.465       .  S
N303        N304   1.323       .  A
N303        C307   1.348       .  A
N303       Cu311   2.081   1_556  S
N304        C305   1.343       .  A
N304       Cu310   2.065       .  S
C305        C306   1.376       .  A
C305        H308   1.082       .  S
C306        C307   1.382       .  A
C306        C406   1.436       .  S
C307        H309   1.082       .  S
Cu310       N313   2.064       .  S
Cu311       N321   2.082       .  S
Cu312       N314   2.071       .  S
Cu312       N320   2.071       .  S
N313        N314   1.321   1_556  A
N313        C317   1.344       .  A
N314        C315   1.345       .  A
C315        C316   1.383       .  A
C315        H318   1.082       .  S
C316        C317   1.381   1_554  A
C317        H319   1.082       .  S
N320        N321   1.324       .  A
N320        C324   1.344       .  A
N321        C322   1.348       .  A
C322        C323   1.381       .  A
C322        H325   1.082       .  S
C323        C324   1.377       .  A
C323        C418   1.437       .  S
C324        H326   1.082       .  S
O327       Cu335   2.011       .  S
O327        C337   1.276       .  A
O328       Cu335   2.009       .  S
O328        C338   1.276       .  A
O329       Cu335   2.020       .  S
O329        C339   1.278       .  A
O330       Cu335   2.021       .  S
O330        C340   1.278       .  A
O331       Cu336   2.019       .  S
O331        C340   1.278       .  A
O332       Cu336   2.018       .  S
O332        C339   1.277       .  A
O333       Cu336   2.009       .  S
O333        C338   1.276       .  A
O334       Cu336   2.008       .  S
O334        C337   1.276       .  A
Cu335      Cu336   2.378       .  S
C337        C404   1.435       .  S
C338        C644   1.435       .  S
C339        C616   1.442       .  S
C340        C518   1.443       .  S
O341       Cu349   2.011       .  S
O341        C351   1.277       .  A
O342       Cu349   2.009       .  S
O342        C352   1.276       .  A
O343       Cu349   2.013       .  S
O343        C353   1.277       .  A
O344       Cu349   2.012       .  S
O344        C354   1.277       .  A
O345       Cu350   2.013       .  S
O345        C354   1.277       .  A
O346       Cu350   2.013       .  S
O346        C353   1.277       .  A
O347       Cu350   2.014       .  S
O347        C352   1.277       .  A
O348       Cu350   2.016       .  S
O348        C351   1.277       .  A
Cu349      Cu350   2.379       .  S
C351        C476   1.438       .  S
C352        C420   1.436       .  S
C353        C532   1.437       .  S
C354        C588   1.437       .  S
O355       Cu363   2.009       .  S
O355        C365   1.276       .  A
O356       Cu363   2.014       .  S
O356        C366   1.277       .  A
O357       Cu363   2.011       .  S
O357        C367   1.276       .  A
O358       Cu363   2.013       .  S
O358        C368   1.277       .  A
O359       Cu364   2.014       .  S
O359        C368   1.277       .  A
O360       Cu364   2.014       .  S
O360        C367   1.277       .  A
O361       Cu364   2.015       .  S
O361        C366   1.277       .  A
O362       Cu364   2.009       .  S
O362        C365   1.276       .  A
Cu363      Cu364   2.379       .  S
C365        C432   1.434       .  S
C366        C504   1.439       .  S
C367        C698   1.437       .  S
C368        C546   1.438       .  S
O369       Cu377   2.018       .  S
O369        C379   1.277       .  A
O370       Cu377   2.019       .  S
O370        C380   1.278       .  A
O371       Cu377   2.013       .  S
O371        C381   1.277       .  A
O372       Cu377   2.013       .  S
O372        C382   1.277       .  A
O373       Cu378   2.015       .  S
O373        C382   1.277       .  A
O374       Cu378   2.016       .  S
O374        C381   1.277       .  A
O375       Cu378   2.014       .  S
O375        C380   1.277       .  A
O376       Cu378   2.013       .  S
O376        C379   1.277       .  A
Cu377      Cu378   2.378       .  S
C379        C448   1.439   1_655  S
C380        C462   1.441       .  S
C381        C574   1.439       .  S
C382        C558   1.438       .  S
O383       Cu391   2.012       .  S
O383        C393   1.277       .  A
O384       Cu391   2.013       .  S
O384        C394   1.277       .  A
O385       Cu391   2.012       .  S
O385        C395   1.277       .  A
O386       Cu391   2.017       .  S
O386        C396   1.278       .  A
O387       Cu392   2.007       .  S
O387        C396   1.276       .  A
O388       Cu392   2.003       .  S
O388        C395   1.275       .  A
O389       Cu392   2.007       .  S
O389        C394   1.276       .  A
O390       Cu392   2.007       .  S
O390        C393   1.276       .  A
Cu391      Cu392   2.380       .  S
C393        C684   1.435       .  S
C394        C726   1.435       .  S
C395        C670   1.432       .  S
C396        C490   1.437       .  S
C397        C398   1.401       .  A
C397        C402   1.401       .  A
C397        C405   1.439       .  S
C398        C399   1.397       .  A
C398        H407   1.084       .  S
C399        C400   1.400       .  A
C399        H408   1.083       .  S
C400        C401   1.402       .  A
C400        C403   1.440       .  S
C401        C402   1.400       .  A
C401        H409   1.083       .  S
C402        H410   1.083       .  S
C403        C404   1.206       .  T
C405        C406   1.206       .  T
C411        C412   1.401       .  A
C411        C416   1.402       .  A
C411        C419   1.441       .  S
C412        C413   1.399       .  A
C412        H421   1.083       .  S
C413        C414   1.402       .  A
C413        H422   1.083       .  S
C414        C415   1.401       .  A
C414        C417   1.441       .  S
C415        C416   1.399       .  A
C415        H423   1.083       .  S
C416        H424   1.083       .  S
C417        C418   1.206       .  T
C419        C420   1.207       .  T
C425        C426   1.401       .  A
C425        C430   1.401       .  A
C425        C433   1.438       .  S
C426        C427   1.398       .  A
C426        H435   1.083       .  S
C427        C428   1.401       .  A
C427        H436   1.083       .  S
C428        C429   1.401       .  A
C428        C431   1.439       .  S
C429        C430   1.398       .  A
C429        H437   1.083       .  S
C430        H438   1.083       .  S
C431        C432   1.205       .  T
C433        C434   1.205       .  T
C439        C440   1.402       .  A
C439        C444   1.402       .  A
C439        C447   1.444       .  S
C440        C441   1.400       .  A
C440        H449   1.083       .  S
C441        C442   1.402       .  A
C441        H450   1.083       .  S
C442        C443   1.402       .  A
C442        C445   1.443       .  S
C443        C444   1.400       .  A
C443        H451   1.083       .  S
C444        H452   1.083       .  S
C445        C446   1.208       .  T
C447        C448   1.208       .  T
C453        C454   1.402       .  A
C453        C458   1.402       .  A
C453        C461   1.445       .  S
C454        C455   1.401       .  A
C454        H463   1.083       .  S
C455        C456   1.402       .  A
C455        H464   1.083       .  S
C456        C457   1.402       .  A
C456        C459   1.445       .  S
C457        C458   1.401       .  A
C457        H465   1.083       .  S
C458        H466   1.083       .  S
C459        C460   1.209       .  T
C461        C462   1.209       .  T
C467        C468   1.402       .  A
C467        C472   1.402       .  A
C467        C475   1.443       .  S
C468        C469   1.400       .  A
C468        H477   1.083       .  S
C469        C470   1.402       .  A
C469        H478   1.083       .  S
C470        C471   1.402       .  A
C470        C473   1.444       .  S
C471        C472   1.400       .  A
C471        H479   1.083       .  S
C472        H480   1.083       .  S
C473        C474   1.208       .  T
C475        C476   1.208       .  T
C481        C482   1.402       .  A
C481        C486   1.402       .  A
C481        C489   1.442       .  S
C482        C483   1.400       .  A
C482        H491   1.083       .  S
C483        C484   1.403       .  A
C483        H492   1.083       .  S
C484        C485   1.402       .  A
C484        C487   1.444       .  S
C485        C486   1.400       .  A
C485        H493   1.083       .  S
C486        H494   1.083       .  S
C487        C488   1.208       .  T
C489        C490   1.207       .  T
C495        C496   1.403       .  A
C495        C500   1.401       .  A
C495        C503   1.444       .  S
C496        C497   1.402       .  A
C496        H505   1.083       .  S
C497        C498   1.402   1_565  A
C497        H506   1.083       .  S
C498        C499   1.402       .  A
C498        C501   1.445       .  S
C499        C500   1.400   1_545  A
C499        H507   1.083       .  S
C500        H508   1.084   1_565  S
C501        C502   1.209       .  T
C503        C504   1.209       .  T
C509        C510   1.402       .  A
C509        C514   1.403       .  A
C509        C517   1.448       .  S
C510        C511   1.401       .  A
C510        H519   1.083       .  S
C511        C512   1.402       .  A
C511        H520   1.084       .  S
C512        C513   1.403       .  A
C512        C515   1.447       .  S
C513        C514   1.403       .  A
C513        H521   1.083       .  S
C514        H522   1.083       .  S
C515        C516   1.210       .  T
C517        C518   1.211       .  T
C523        C524   1.402       .  A
C523        C528   1.402       .  A
C523        C531   1.442       .  S
C524        C525   1.400       .  A
C524        H533   1.083       .  S
C525        C526   1.402       .  A
C525        H534   1.083       .  S
C526        C527   1.402       .  A
C526        C529   1.443       .  S
C527        C528   1.400       .  A
C527        H535   1.083       .  S
C528        H536   1.083       .  S
C529        C530   1.208       .  T
C531        C532   1.207       .  T
C537        C538   1.402       .  A
C537        C542   1.402       .  A
C537        C545   1.443       .  S
C538        C539   1.401       .  A
C538        H547   1.084       .  S
C539        C540   1.402       .  A
C539        H548   1.083       .  S
C540        C541   1.401       .  A
C540        C543   1.443       .  S
C541        C542   1.400       .  A
C541        H549   1.084       .  S
C542        H550   1.083       .  S
C543        C544   1.208       .  T
C545        C546   1.208       .  T
C551        C552   1.401       .  A
C551        C556   1.402       .  A
C551        C559   1.443       .  S
C552        C553   1.400       .  A
C552        H561   1.083       .  S
C553        C554   1.402       .  A
C553        H562   1.084       .  S
C554        C555   1.402       .  A
C554        C557   1.443       .  S
C555        C556   1.400       .  A
C555        H563   1.083       .  S
C556        H564   1.084       .  S
C557        C558   1.208   1_455  T
C559        C560   1.207       .  T
C565        C566   1.402       .  A
C565        C570   1.402       .  A
C565        C573   1.444       .  S
C566        C567   1.400       .  A
C566        H575   1.083       .  S
C567        C568   1.402       .  A
C567        H576   1.083       .  S
C568        C569   1.402       .  A
C568        C571   1.443       .  S
C569        C570   1.401       .  A
C569        H577   1.083       .  S
C570        H578   1.083       .  S
C571        C572   1.208       .  T
C573        C574   1.208       .  T
C579        C580   1.402       .  A
C579        C584   1.401       .  A
C579        C587   1.442       .  S
C580        C581   1.400       .  A
C580        H589   1.083       .  S
C581        C582   1.402       .  A
C581        H590   1.083       .  S
C582        C583   1.402       .  A
C582        C585   1.442       .  S
C583        C584   1.400       .  A
C583        H591   1.083       .  S
C584        H592   1.083       .  S
C585        C586   1.207       .  T
C587        C588   1.207       .  T
C593        C594   1.402       .  A
C593        C598   1.401       .  A
C593        C601   1.441       .  S
C594        C595   1.400       .  A
C594        H603   1.083       .  S
C595        C596   1.402       .  A
C595        H604   1.083       .  S
C596        C597   1.402       .  A
C596        C599   1.441       .  S
C597        C598   1.400       .  A
C597        H605   1.083       .  S
C598        H606   1.083       .  S
C599        C600   1.207       .  T
C601        C602   1.207       .  T
C607        C608   1.402   1_565  A
C607        C612   1.403   1_565  A
C607        C615   1.447       .  S
C608        C609   1.401       .  A
C608        H617   1.083   1_545  S
C609        C610   1.402       .  A
C609        H618   1.083       .  S
C610        C611   1.402       .  A
C610        C613   1.446       .  S
C611        C612   1.402       .  A
C611        H619   1.083       .  S
C612        H620   1.083       .  S
C613        C614   1.209       .  T
C615        C616   1.210       .  T
C621        C622   1.402       .  A
C621        C626   1.402       .  A
C621        C629   1.442       .  S
C622        C623   1.400       .  A
C622        H631   1.084       .  S
C623        C624   1.402       .  A
C623        H632   1.083       .  S
C624        C625   1.402       .  A
C624        C627   1.442       .  S
C625        C626   1.400       .  A
C625        H633   1.084       .  S
C626        H634   1.083       .  S
C627        C628   1.207       .  T
C629        C630   1.208       .  T
C635        C636   1.401   1_565  A
C635        C640   1.401   1_565  A
C635        C643   1.440       .  S
C636        C637   1.400       .  A
C636        H645   1.083   1_545  S
C637        C638   1.402       .  A
C637        H646   1.083       .  S
C638        C639   1.401       .  A
C638        C641   1.441       .  S
C639        C640   1.399       .  A
C639        H647   1.083       .  S
C640        H648   1.083   1_545  S
C641        C642   1.206       .  T
C643        C644   1.206       .  T
C649        C650   1.401       .  A
C649        C654   1.402   1_455  A
C649        C657   1.442   1_455  S
C650        C651   1.399       .  A
C650        H659   1.083       .  S
C651        C652   1.402       .  A
C651        H660   1.083       .  S
C652        C653   1.401       .  A
C652        C655   1.441       .  S
C653        C654   1.400   1_455  A
C653        H661   1.083       .  S
C654        H662   1.083       .  S
C655        C656   1.206       .  T
C657        C658   1.207       .  T
C663        C664   1.400       .  A
C663        C668   1.401       .  A
C663        C671   1.436       .  S
C664        C665   1.398       .  A
C664        H673   1.083       .  S
C665        C666   1.401       .  A
C665        H674   1.083       .  S
C666        C667   1.400       .  A
C666        C669   1.437       .  S
C667        C668   1.397       .  A
C667        H675   1.083       .  S
C668        H676   1.084       .  S
C669        C670   1.204       .  T
C671        C672   1.204       .  T
C677        C678   1.402       .  A
C677        C682   1.401       .  A
C677        C685   1.440       .  S
C678        C679   1.399       .  A
C678        H687   1.083       .  S
C679        C680   1.401       .  A
C679        H688   1.083       .  S
C680        C681   1.401       .  A
C680        C683   1.440       .  S
C681        C682   1.398       .  A
C681        H689   1.083       .  S
C682        H690   1.083       .  S
C683        C684   1.206       .  T
C685        C686   1.206       .  T
C691        C692   1.401       .  A
C691        C696   1.401   1_545  A
C691        C699   1.441       .  S
C692        C693   1.399       .  A
C692        H701   1.083       .  S
C693        C694   1.401   1_545  A
C693        H702   1.083       .  S
C694        C695   1.402       .  A
C694        C697   1.442       .  S
C695        C696   1.400       .  A
C695        H703   1.083       .  S
C696        H704   1.083       .  S
C697        C698   1.207       .  T
C699        C700   1.206       .  T
C705        C706   1.400       .  A
C705        C710   1.403   1_455  A
C705        C713   1.441   1_455  S
C706        C707   1.398       .  A
C706        H715   1.084       .  S
C707        C708   1.401       .  A
C707        H716   1.083       .  S
C708        C709   1.402       .  A
C708        C711   1.441       .  S
C709        C710   1.401   1_455  A
C709        H717   1.083       .  S
C710        H718   1.083       .  S
C711        C712   1.206       .  T
C713        C714   1.207       .  T
C719        C720   1.401       .  A
C719        C724   1.401       .  A
C719        C727   1.440       .  S
C720        C721   1.400       .  A
C720        H729   1.083       .  S
C721        C722   1.402       .  A
C721        H730   1.083       .  S
C722        C723   1.401       .  A
C722        C725   1.440       .  S
C723        C724   1.399       .  A
C723        H731   1.083       .  S
C724        H732   1.083       .  S
C725        C726   1.206       .  T
C727        C728   1.206       .  T
