geometry optimzed in LAMMPS
_audit_creation_date              2020-12-01 
_audit_creation_method            'lammps2cif' 
_symmetry_space_group_name_H-M    'P1' 
_symmetry_Int_Tables_number       1 
_symmetry_cell_setting            triclinic 
loop_ 
_symmetry_equiv_pos_as_xyz 
  x,y,z 
_cell_length_a                    62.87169813 
_cell_length_b                    62.75723806799888 
_cell_length_c                    62.829814926750245 
_cell_angle_alpha                 89.97939939148577 
_cell_angle_beta                  90.03528540603259 
_cell_angle_gamma                 90.11992849934472 
loop_ 
_atom_site_label 
_atom_site_type_symbol 
_atom_site_fract_x 
_atom_site_fract_y 
_atom_site_fract_z 
_atom_site_charge 
C1          C  0.70959757  0.73922498  0.73279601     0.81900
N2          N  0.70074427  0.72924765  0.74983497    -0.76400
C3          C  0.70994633  0.71163552  0.75827258     0.84300
N4          N  0.72798006  0.70391672  0.74943438    -0.76400
C5          C  0.73694303  0.71343655  0.73225818     0.84400
N6          N  0.72759039  0.73110251  0.72392500    -0.78100
C7          C  0.20436241  0.71651932  0.21844505     0.81900
N8          N  0.21192925  0.73430147  0.22827140    -0.76400
C9          C  0.22960344  0.74438495  0.22089940     0.84300
N10         N  0.23960307  0.73643982  0.20351414    -0.76400
C11         C  0.23225363  0.71879825  0.19342406     0.84400
N12         N  0.21467996  0.70877704  0.20109449    -0.78100
C13         C  0.75492144  0.21730111  0.70849375     0.81900
N14         N  0.74781885  0.22794801  0.72585865    -0.76400
C15         C  0.73055154  0.22118914  0.73689011     0.84300
N16         N  0.72018150  0.20339456  0.73019329    -0.76400
C17         C  0.72699057  0.19241590  0.71283682     0.84400
N18         N  0.74431224  0.19957814  0.70205070    -0.78100
C19         C  0.22127071  0.19457751  0.70356286     0.81900
N20         N  0.22809185  0.20331007  0.72210306    -0.76400
C21         C  0.21907362  0.22128006  0.73007439     0.84300
N22         N  0.20290843  0.23061695  0.71905874    -0.76400
C23         C  0.19599918  0.22207469  0.70039415     0.84400
N24         N  0.20530576  0.20417934  0.69276423    -0.78100
C25         C  0.22713731  0.69811236  0.74411568     0.81900
N26         N  0.23617516  0.71598344  0.73586419    -0.76400
C27         C  0.22713679  0.72634128  0.71915288     0.84300
N28         N  0.20887329  0.71847605  0.71060375    -0.76400
C29         C  0.19962003  0.70063699  0.71863667     0.84400
N30         N  0.20887844  0.69059890  0.73535318    -0.78100
C31         C  0.71247228  0.20787683  0.22225735     0.81900
N32         N  0.72945499  0.21647749  0.23259566    -0.76400
C33         C  0.73960925  0.23385924  0.22458590     0.84300
N34         N  0.73244719  0.24272637  0.20624589    -0.76400
C35         C  0.71551055  0.23441742  0.19573527     0.84400
N36         N  0.70562455  0.21699826  0.20390125    -0.78100
O37         O  0.49017054  0.48342985  0.12366890    -0.71300
O38         O  0.44252484  0.44069950  0.11674488    -0.72300
O39         O  0.48796872  0.43841029  0.11854125    -0.60900
O40         O  0.44518515  0.48583852  0.12194715    -0.69300
O41         O  0.44726971  0.48936047  0.08687060    -0.68800
O42         O  0.48854017  0.44194743  0.08338096    -0.60100
O43         O  0.44406800  0.44516770  0.08180192    -0.72600
O44         O  0.49182169  0.48637133  0.08855185    -0.71400
Cu45       Cu  0.46639484  0.46187583  0.12152617     1.04600
Cu46       Cu  0.46798274  0.46580460  0.08400836     1.04300
C47         C  0.49842228  0.49174926  0.10701777     0.94900
C48         C  0.43557360  0.43645586  0.09806342     0.94100
C49         C  0.49501968  0.43282311  0.10030344     0.86200
C50         C  0.43969507  0.49522512  0.10475305     0.92500
C51         C  0.29578604  0.30325670  0.07781157     0.81900
N52         N  0.31041388  0.31854996  0.08233628    -0.76400
C53         C  0.31991802  0.32988166  0.06666357     0.84300
N54         N  0.31461766  0.32599994  0.04612694    -0.76400
C55         C  0.29998434  0.31083989  0.04120482     0.84400
N56         N  0.29070570  0.29931322  0.05706464    -0.78100
C57         C  0.32837546  0.65167220  0.08467972     0.81900
N58         N  0.34303917  0.63779763  0.09236031    -0.76400
C59         C  0.35496070  0.62583205  0.07903934     0.84300
N60         N  0.35205923  0.62764570  0.05776309    -0.76400
C61         C  0.33746492  0.64133086  0.04967581     0.84400
N62         N  0.32552766  0.65322115  0.06324333    -0.78100
C63         C  0.64633407  0.31549684  0.07642428     0.81900
N64         N  0.62961294  0.32785324  0.08214559    -0.76400
C65         C  0.61792114  0.33820796  0.06735020     0.84300
N66         N  0.62289730  0.33603532  0.04652578    -0.76400
C67         C  0.63933883  0.32353589  0.04032784     0.84400
N68         N  0.65109411  0.31334027  0.05539196    -0.78100
C69         C  0.62502797  0.63946055  0.09610244     0.81900
N70         N  0.60976747  0.62610721  0.10392443    -0.76400
C71         C  0.59694578  0.61504559  0.09041698     0.84300
N72         N  0.59976338  0.61715980  0.06915049    -0.76400
C73         C  0.61490794  0.63019055  0.06104365     0.84400
N74         N  0.62752049  0.64129206  0.07465263    -0.78100
O75         O  0.44949624  0.47531378  0.81965850    -0.71300
O76         O  0.49909871  0.43529309  0.81419867    -0.72300
O77         O  0.45359863  0.43050777  0.81376484    -0.60900
O78         O  0.49483198  0.47967093  0.82040165    -0.69300
O79         O  0.49395817  0.47503788  0.85540952    -0.68800
O80         O  0.45441368  0.42614790  0.84875871    -0.60100
O81         O  0.49890638  0.43091092  0.84925516    -0.72600
O82         O  0.44940412  0.47024154  0.85451923    -0.71400
Cu83       Cu  0.47422496  0.45534340  0.81570489     1.04600
Cu84       Cu  0.47415885  0.45040184  0.85311947     1.04300
C85         C  0.44156839  0.47912291  0.83799939     0.94900
C86         C  0.50702681  0.42708456  0.83102962     0.94100
C87         C  0.44744013  0.42064025  0.83050843     0.86200
C88         C  0.50094127  0.48493231  0.83911133     0.92500
C89         C  0.29751774  0.29789295  0.84737871     0.81900
N90         N  0.29426329  0.29483042  0.86861119    -0.76400
C91         C  0.30610298  0.30561068  0.88324072     0.84300
N92         N  0.32110867  0.31961589  0.87637906    -0.76400
C93         C  0.32454317  0.32285488  0.85532866     0.84400
N94         N  0.31273835  0.31190497  0.84095768    -0.78100
C95         C  0.30641823  0.61795588  0.85867858     0.81900
N96         N  0.32041701  0.60262920  0.85252663    -0.76400
C97         C  0.33302882  0.59276899  0.86701193     0.84300
N98         N  0.33147087  0.59819025  0.88780529    -0.76400
C99         C  0.31754649  0.61329424  0.89429978     0.84400
N100        N  0.30515269  0.62325292  0.87966112    -0.78100
C101        C  0.66397754  0.31562083  0.84793415     0.81900
N102        N  0.64953779  0.33003431  0.84070318    -0.76400
C103        C  0.63907313  0.34302046  0.85440510     0.84300
N104        N  0.64318159  0.34138553  0.87551784    -0.76400
C105        C  0.65743887  0.32706995  0.88300935     0.84400
N106        N  0.66769704  0.31405306  0.86919862    -0.78100
C107        C  0.63864590  0.61951887  0.86816922     0.81900
N108        N  0.64152429  0.62295872  0.88934509    -0.76400
C109        C  0.63129113  0.61069006  0.90391225     0.84300
N110        N  0.61788803  0.59511399  0.89718651    -0.76400
C111        C  0.61465322  0.59161097  0.87612713     0.84400
N112        N  0.62510180  0.60389302  0.86172325    -0.78100
O113        O  0.49811505  0.08465218  0.45073513    -0.71300
O114        O  0.45761467  0.07958565  0.49891307    -0.72300
O115        O  0.45380436  0.08129232  0.45437270    -0.60900
O116        O  0.50219095  0.08308335  0.49530801    -0.69300
O117        O  0.49926139  0.11824457  0.49780517    -0.68800
O118        O  0.45156228  0.11652203  0.45516009    -0.60100
O119        O  0.45423880  0.11466763  0.50039371    -0.72600
O120        O  0.49644241  0.11984428  0.45219496    -0.71400
Cu121      Cu  0.47806086  0.08100511  0.47482722     1.04600
Cu122      Cu  0.47534283  0.11862269  0.47647827     1.04300
C123        C  0.50352607  0.10285091  0.44347843     0.94900
C124        C  0.44912248  0.09610221  0.50710706     0.94100
C125        C  0.44513715  0.09854852  0.44804547     0.86200
C126        C  0.50820673  0.10081097  0.50325344     0.92500
C127        C  0.30891147  0.08778114  0.30899430     0.81900
N128        N  0.30703466  0.06705997  0.30267413    -0.76400
C129        C  0.32000076  0.05184529  0.31097240     0.84300
N130        N  0.33472305  0.05741638  0.32571878    -0.76400
C131        C  0.33670646  0.07784587  0.33233706     0.84400
N132        N  0.32374386  0.09292968  0.32394428    -0.78100
C133        C  0.62182379  0.09465823  0.29032195     0.81900
N134        N  0.62421614  0.07331844  0.28721159    -0.76400
C135        C  0.61092048  0.05931726  0.29700829     0.84300
N136        N  0.59551874  0.06670089  0.31014368    -0.76400
C137        C  0.59327480  0.08786276  0.31371534     0.84400
N138        N  0.60649039  0.10177591  0.30380692    -0.78100
C139        C  0.30600455  0.07631623  0.63756356     0.81900
N140        N  0.32229358  0.08231869  0.62464862    -0.76400
C141        C  0.33609771  0.06766191  0.61690535     0.84300
N142        N  0.33341965  0.04685233  0.62208188    -0.76400
C143        C  0.31722938  0.04052679  0.63491027     0.84400
N144        N  0.30355593  0.05537414  0.64257202    -0.78100
C145        C  0.63815621  0.07661835  0.64539610     0.81900
N146        N  0.63972095  0.05533777  0.64958947    -0.76400
C147        C  0.62721516  0.04114635  0.63894995     0.84300
N148        N  0.61309338  0.04844857  0.62439043    -0.76400
C149        C  0.61124811  0.06946265  0.62007056     0.84400
N150        N  0.62391817  0.08339779  0.63058233    -0.78100
O151        O  0.49206352  0.82011881  0.45610148    -0.71300
O152        O  0.44410853  0.81407686  0.49818417    -0.72300
O153        O  0.44678880  0.81681674  0.45280793    -0.60900
O154        O  0.48903439  0.81747662  0.50150721    -0.69300
O155        O  0.48657235  0.85265901  0.50269755    -0.68800
O156        O  0.44398618  0.85194532  0.45547982    -0.60100
O157        O  0.44185337  0.84935634  0.49981063    -0.72600
O158        O  0.48862581  0.85527180  0.45763329    -0.71400
Cu159      Cu  0.46814513  0.81583093  0.47705708     1.04600
Cu160      Cu  0.46524783  0.85347000  0.47896873     1.04300
C161        C  0.49761808  0.83874859  0.44998887     0.94900
C162        C  0.43540490  0.83093285  0.50550226     0.94100
C163        C  0.43843400  0.83440873  0.44680081     0.86200
C164        C  0.49427404  0.83528318  0.50995434     0.92500
C165        C  0.31013821  0.85768548  0.30150299     0.81900
N166        N  0.30762103  0.87904274  0.29852547    -0.76400
C167        C  0.31952521  0.89322165  0.30973829     0.84300
N168        N  0.33406600  0.88588369  0.32387199    -0.76400
C169        C  0.33700279  0.86472652  0.32701645     0.84400
N170        N  0.32488636  0.85071908  0.31580413    -0.78100
C171        C  0.62887341  0.86561524  0.30896492     0.81900
N172        N  0.62923835  0.88683655  0.30440021    -0.76400
C173        C  0.61801120  0.90097856  0.31631563     0.84300
N174        N  0.60643115  0.89357688  0.33296127    -0.76400
C175        C  0.60583489  0.87255414  0.33782439     0.84400
N176        N  0.61700112  0.85864528  0.32569033    -0.78100
C177        C  0.30213560  0.84686949  0.64499219     0.81900
N178        N  0.31691494  0.84031357  0.63065609    -0.76400
C179        C  0.32708485  0.85462642  0.61810771     0.84300
N180        N  0.32228848  0.87557192  0.61988816    -0.76400
C181        C  0.30750002  0.88239333  0.63401149     0.84400
N182        N  0.29745915  0.86797335  0.64666198    -0.78100
C183        C  0.61678517  0.84831041  0.66158792     0.81900
N184        N  0.60121982  0.84155301  0.64804827    -0.76400
C185        C  0.58851615  0.85593316  0.63796957     0.84300
N186        N  0.59163604  0.87706339  0.64149071    -0.76400
C187        C  0.60714956  0.88398876  0.65483115     0.84400
N188        N  0.61971425  0.86952857  0.66472830    -0.78100
C189        C  0.73715115  0.72906078  0.22796871     0.81900
N190        N  0.72832454  0.71857011  0.21118893    -0.76400
C191        C  0.71006595  0.72564758  0.20198159     0.84300
N192        N  0.70058323  0.74335454  0.20998086    -0.76400
C193        C  0.70916791  0.75406972  0.22667218     0.84400
N194        N  0.72741720  0.74678161  0.23558267    -0.78100
O195        O  0.07383694  0.45512656  0.43725228    -0.71300
O196        O  0.07379768  0.49748974  0.48443986    -0.72300
O197        O  0.07335189  0.49991381  0.43966136    -0.60900
O198        O  0.07456665  0.45248026  0.48208819    -0.69300
O199        O  0.10976467  0.45239657  0.48124825    -0.68800
O200        O  0.10858811  0.50132320  0.43974333    -0.60100
O201        O  0.10905674  0.49774267  0.48504543    -0.72600
O202        O  0.10900254  0.45594751  0.43592601    -0.71400
Cu203      Cu  0.07273829  0.47624011  0.46091067     1.04600
Cu204      Cu  0.11039632  0.47687947  0.46050163     1.04300
C205        C  0.09122318  0.44886651  0.42888502     0.94900
C206        C  0.09123301  0.50438366  0.49226470     0.94100
C207        C  0.09068494  0.50814621  0.43293902     0.86200
C208        C  0.09228234  0.44465977  0.48823113     0.92500
C209        C  0.07989105  0.31599149  0.28632910     0.81900
N210        N  0.08587259  0.33137226  0.30042519    -0.76400
C211        C  0.07179623  0.34624784  0.30726190     0.84300
N212        N  0.05153498  0.34559699  0.29996193    -0.76400
C213        C  0.04513912  0.33038682  0.28600935     0.84400
N214        N  0.05936471  0.31551836  0.27932751    -0.78100
C215        C  0.08262572  0.64209634  0.29156788     0.81900
N216        N  0.06180893  0.64468435  0.28601336    -0.76400
C217        C  0.04625801  0.63451235  0.29712715     0.84300
N218        N  0.05153982  0.62213454  0.31398554    -0.76400
C219        C  0.07208508  0.61965485  0.31991816     0.84400
N220        N  0.08755342  0.62952127  0.30852737    -0.78100
C221        C  0.08592521  0.28827110  0.60473244     0.81900
N222        N  0.09179137  0.30389362  0.59087949    -0.76400
C223        C  0.07731676  0.31285694  0.57760075     0.84300
N224        N  0.05682907  0.30622652  0.57838583    -0.76400
C225        C  0.05060245  0.29079824  0.59215583     0.84400
N226        N  0.06520417  0.28195103  0.60541435    -0.78100
C227        C  0.07858971  0.62510102  0.64492106     0.81900
N228        N  0.08377767  0.61172246  0.62869003    -0.76400
C229        C  0.06850744  0.60112202  0.61769329     0.84300
N230        N  0.04786913  0.60414738  0.62292743    -0.76400
C231        C  0.04223021  0.61751783  0.63887782     0.84400
N232        N  0.05769289  0.62791107  0.64991317    -0.78100
O233        O  0.85243892  0.46018482  0.49429431    -0.71300
O234        O  0.85244610  0.50350741  0.44800572    -0.72300
O235        O  0.85207496  0.50492008  0.49291268    -0.60900
O236        O  0.85302421  0.45863672  0.44970208    -0.69300
O237        O  0.81778264  0.45862313  0.44793067    -0.68800
O238        O  0.81683474  0.50387265  0.49381205    -0.60100
O239        O  0.81720251  0.50424604  0.44809265    -0.72600
O240        O  0.81725314  0.45848923  0.49338136    -0.71400
Cu241      Cu  0.85363120  0.48188335  0.47121344     1.04600
Cu242      Cu  0.81594740  0.48134892  0.47076472     1.04300
C243        C  0.83501485  0.45221920  0.50106820     0.94900
C244        C  0.83498618  0.51080392  0.44064729     0.94100
C245        C  0.83449074  0.51139825  0.50066469     0.86200
C246        C  0.83576425  0.45114856  0.44204293     0.92500
C247        C  0.85366127  0.31598881  0.30249284     0.81900
N248        N  0.87430926  0.31459460  0.29623241    -0.76400
C249        C  0.88963686  0.32626403  0.30599225     0.84300
N250        N  0.88414519  0.33960199  0.32203209    -0.76400
C251        C  0.86362484  0.34149917  0.32842658     0.84400
N252        N  0.84846319  0.32954935  0.31858286    -0.78100
C253        C  0.85358496  0.65247343  0.30755688     0.81900
N254        N  0.87473734  0.65445762  0.30324180    -0.76400
C255        C  0.88935014  0.64243488  0.31374540     0.84300
N256        N  0.88254299  0.62835301  0.32867657    -0.76400
C257        C  0.86157732  0.62610064  0.33316797     0.84400
N258        N  0.84719419  0.63810516  0.32247767    -0.78100
C259        C  0.85855107  0.29667919  0.61608667     0.81900
N260        N  0.85114597  0.31316490  0.60413076    -0.76400
C261        C  0.86472496  0.32527618  0.59244435     0.84300
N262        N  0.88583429  0.32087886  0.59291271    -0.76400
C263        C  0.89351447  0.30461140  0.60483827     0.84400
N264        N  0.87976411  0.29257904  0.61633551    -0.78100
C265        C  0.85018876  0.63286973  0.65254000     0.81900
N266        N  0.87088796  0.63337413  0.65886109    -0.76400
C267        C  0.88539372  0.62036434  0.64963199     0.84300
N268        N  0.87919818  0.60702153  0.63385620    -0.76400
C269        C  0.85872025  0.60636703  0.62717349     0.84400
N270        N  0.84427244  0.61936623  0.63661321    -0.78100
C271        C  0.22864262  0.20415921  0.23166551     0.81900
N272        N  0.23766768  0.21206731  0.21363824    -0.76400
C273        C  0.22814419  0.22794082  0.20250294     0.84300
N274        N  0.20950773  0.23601181  0.20968702    -0.76400
C275        C  0.20022643  0.22852062  0.22770125     0.84400
N276        N  0.20989551  0.21249055  0.23863723    -0.78100
C277        C  0.82621162  0.41668133  0.39330468     0.14300
C278        C  0.84283304  0.40182445  0.39524442     0.01300
C279        C  0.85592653  0.40240373  0.41334382     0.16300
C280        C  0.85315522  0.41813966  0.42875471     0.25700
C281        C  0.83706544  0.43352940  0.42651483    -0.40700
C282        C  0.82325919  0.43238018  0.40891886     0.32700
C283        C  0.84762373  0.38659205  0.37789527     0.01400
F284        F  0.87165336  0.38782676  0.41593998    -0.13000
F285        F  0.80770207  0.44711161  0.40624200    -0.13500
C286        C  0.86762100  0.38717510  0.36801967     0.16300
C287        C  0.87278898  0.37256187  0.35212457     0.25700
C288        C  0.85796563  0.35692730  0.34556414    -0.40600
C289        C  0.83780240  0.35647383  0.35549789     0.32700
C290        C  0.83271162  0.37120499  0.37147444     0.14400
F291        F  0.88218133  0.40217653  0.37364244    -0.13000
F292        F  0.82308268  0.34155474  0.35015316    -0.13500
F293        F  0.89233008  0.37406302  0.34305292    -0.15800
F294        F  0.81339490  0.37010652  0.38106558    -0.14300
F295        F  0.81352944  0.41662122  0.37580862    -0.14300
F296        F  0.86628094  0.41833552  0.44593400    -0.15700
C297        C  0.85661466  0.41516198  0.54323607     0.14300
C298        C  0.84057837  0.39964209  0.54441548     0.01300
C299        C  0.82151161  0.40269462  0.53318641     0.16300
C300        C  0.81910567  0.42041893  0.51980618     0.25700
C301        C  0.83583221  0.43525591  0.51746996    -0.40700
C302        C  0.85430460  0.43277851  0.52993888     0.32700
C303        C  0.84492314  0.37949771  0.55576601     0.01400
F304        F  0.80575663  0.38790514  0.53422656    -0.13000
F305        F  0.87044334  0.44716371  0.52895772    -0.13500
C306        C  0.83346615  0.37368282  0.57404925     0.16300
C307        C  0.83937571  0.35559538  0.58574304     0.25700
C308        C  0.85689544  0.34318433  0.57928402    -0.40600
C309        C  0.86768599  0.34864297  0.56042872     0.32700
C310        C  0.86171308  0.36656607  0.54879717     0.14400
F311        F  0.81722242  0.38603631  0.58107838    -0.13000
F312        F  0.88409802  0.33662745  0.55318749    -0.13500
F313        F  0.82867585  0.35090948  0.60391677    -0.15800
F314        F  0.87256034  0.37153169  0.53076848    -0.14300
F315        F  0.87490141  0.41284975  0.55451983    -0.14300
F316        F  0.80094781  0.42233637  0.50826583    -0.15700
C317        C  0.85545517  0.54366346  0.39454095     0.14300
C318        C  0.84003068  0.55970951  0.39294819     0.01300
C319        C  0.82186803  0.55870915  0.40594364     0.16300
C320        C  0.81970635  0.54238056  0.42107081     0.25700
C321        C  0.83577162  0.52691763  0.42341953    -0.40700
C322        C  0.85340090  0.52748129  0.40961079     0.32700
C323        C  0.84394429  0.57806245  0.37866714     0.01400
F324        F  0.80674962  0.57407072  0.40465724    -0.13000
F325        F  0.86878937  0.51236432  0.41070745    -0.13500
C326        C  0.83079202  0.58204684  0.36103079     0.16300
C327        C  0.83607054  0.59818395  0.34649602     0.25700
C328        C  0.85467559  0.61042121  0.34936509    -0.40600
C329        C  0.86731670  0.60686435  0.36749533     0.32700
C330        C  0.86195082  0.59091053  0.38201335     0.14400
F331        F  0.81343492  0.56967410  0.35736181    -0.13000
F332        F  0.88490286  0.61888913  0.37123245    -0.13500
F333        F  0.82362682  0.60105432  0.32906475    -0.15800
F334        F  0.87453788  0.58776741  0.39930362    -0.14300
F335        F  0.87276834  0.54387867  0.38162265    -0.14300
F336        F  0.80247060  0.54234221  0.43407684    -0.15700
C337        C  0.82201484  0.53988903  0.55239770     0.14300
C338        C  0.83951005  0.55373931  0.55406840     0.01300
C339        C  0.85429137  0.55480224  0.53737750     0.16300
C340        C  0.85209198  0.54166980  0.51959137     0.25700
C341        C  0.83501434  0.52718848  0.51813695    -0.40700
C342        C  0.81973717  0.52670902  0.53452778     0.32700
C343        C  0.84323886  0.56624865  0.57364749     0.01400
F344        F  0.87111502  0.56836664  0.53851060    -0.13000
F345        F  0.80334550  0.51260539  0.53389724    -0.13500
C346        C  0.86129913  0.56213887  0.58607050     0.16300
C347        C  0.86594354  0.57475169  0.60375815     0.25700
C348        C  0.85262958  0.59195004  0.60937914    -0.40600
C349        C  0.83411163  0.59560540  0.59719429     0.32700
C350        C  0.82947621  0.58280849  0.57950141     0.14400
F351        F  0.87457364  0.54588067  0.58095003    -0.13000
F352        F  0.82089678  0.61204661  0.60179233    -0.13500
F353        F  0.88357537  0.57002338  0.61530946    -0.15800
F354        F  0.81199243  0.58710183  0.56756941    -0.14300
F355        F  0.80776566  0.53836688  0.56855770    -0.14300
F356        F  0.86686155  0.54295675  0.50387544    -0.15700
C357        C  0.98238268  0.61687753  0.63283883     0.14300
C358        C  0.97557216  0.62270003  0.65323823     0.01300
C359        C  0.99063059  0.62819715  0.66878231     0.16300
C360        C  0.01242970  0.62709368  0.66413145     0.25700
C361        C  0.01934613  0.62050699  0.64379562    -0.40700
C362        C  0.00396546  0.61587087  0.62809664     0.32700
C363        C  0.95261389  0.62225298  0.65787725     0.01400
F364        F  0.98422454  0.63393515  0.68859255    -0.13000
F365        F  0.00969921  0.61038173  0.60799781    -0.13500
C366        C  0.94186010  0.60264691  0.65756215     0.16300
C367        C  0.91972727  0.60206155  0.65644810     0.25700
C368        C  0.90801400  0.62109882  0.65568629    -0.40600
C369        C  0.91868147  0.64070699  0.65790777     0.32700
C370        C  0.94093797  0.64126771  0.65888657     0.14400
F371        F  0.95292463  0.58409531  0.65688837    -0.13000
F372        F  0.90775975  0.65933095  0.65714094    -0.13500
F373        F  0.90976376  0.58288373  0.65512347    -0.15800
F374        F  0.95112864  0.66035985  0.65899186    -0.14300
F375        F  0.96798221  0.61200079  0.61745093    -0.14300
F376        F  0.02665309  0.63167722  0.67973884    -0.15700
C377        C  0.99641431  0.28117801  0.61656262     0.14300
C378        C  0.98321027  0.28626260  0.59927590     0.01300
C379        C  0.99217807  0.28923080  0.57906522     0.16300
C380        C  0.01418301  0.28896968  0.57645376     0.25700
C381        C  0.02765973  0.28583732  0.59408872    -0.40700
C382        C  0.01855013  0.28089651  0.61399950     0.32700
C383        C  0.96044798  0.29091285  0.60245704     0.01400
F384        F  0.97957371  0.29343408  0.56201369    -0.13000
F385        F  0.03098212  0.27751043  0.63134313    -0.13500
C386        C  0.95300944  0.31165991  0.59880287     0.16300
C387        C  0.93135207  0.31618533  0.60005147     0.25700
C388        C  0.91662181  0.29997761  0.60498715    -0.40600
C389        C  0.92425395  0.27930076  0.60942844     0.32700
C390        C  0.94603163  0.27484479  0.60819029     0.14400
F391        F  0.96682864  0.32758330  0.59389151    -0.13000
F392        F  0.91065148  0.26314780  0.61408553    -0.13500
F393        F  0.92488648  0.33651479  0.59650770    -0.15800
F394        F  0.95295928  0.25468819  0.61179246    -0.14300
F395        F  0.98797224  0.27805202  0.63620473    -0.14300
F396        F  0.02231614  0.29267807  0.55677715    -0.15700
C397        C  0.94146813  0.65256607  0.28416814     0.14300
C398        C  0.95622198  0.64328636  0.29812200     0.01300
C399        C  0.94914509  0.63516864  0.31769284     0.16300
C400        C  0.92761544  0.63548702  0.32295651     0.25700
C401        C  0.91247057  0.64394509  0.30869412    -0.40700
C402        C  0.91975650  0.65289415  0.28936568     0.32700
C403        C  0.97901186  0.64129373  0.29253453     0.01400
F404        F  0.96321857  0.62678506  0.33179895    -0.13000
F405        F  0.90590157  0.66127567  0.27508911    -0.13500
C406        C  0.99206250  0.65941481  0.29050645     0.16300
C407        C  0.01427724  0.65723959  0.29001796     0.25700
C408        C  0.02355301  0.63694423  0.29179121    -0.40600
C409        C  0.01039164  0.61882283  0.29191977     0.32700
C410        C  0.98832558  0.62097642  0.29212666     0.14400
F411        F  0.98340595  0.67920995  0.29076821    -0.13000
F412        F  0.01896434  0.59899916  0.29294076    -0.13500
F413        F  0.02666211  0.67498277  0.28981545    -0.15800
F414        F  0.97600028  0.60321043  0.29324917    -0.14300
F415        F  0.94797703  0.66060124  0.26519052    -0.14300
F416        F  0.92173745  0.62742891  0.34213188    -0.15700
C417        C  0.13128163  0.28445038  0.28046139     0.14300
C418        C  0.12696232  0.27189363  0.26255795     0.01300
C419        C  0.10681925  0.27286724  0.25304770     0.16300
C420        C  0.09127257  0.28670357  0.26103377     0.25700
C421        C  0.09572234  0.30001003  0.27866529    -0.40700
C422        C  0.11589457  0.29832595  0.28849397     0.32700
C423        C  0.14436484  0.25974376  0.25254105     0.01400
F424        F  0.10244711  0.26087147  0.23559910    -0.13000
F425        F  0.12104150  0.31029324  0.30574099    -0.13500
C426        C  0.14953978  0.23911883  0.25939409     0.16300
C427        C  0.16741317  0.22866396  0.25108133     0.25700
C428        C  0.18046555  0.23879832  0.23581888    -0.40600
C429        C  0.17472405  0.25938403  0.22871305     0.32700
C430        C  0.15689421  0.26965411  0.23701122     0.14400
F431        F  0.13745265  0.22926444  0.27436149    -0.13000
F432        F  0.18674744  0.27010632  0.21429184    -0.13500
F433        F  0.17187350  0.20867631  0.25800721    -0.15800
F434        F  0.15219035  0.28969070  0.23035119    -0.14300
F435        F  0.15078273  0.28379958  0.28974308    -0.14300
F436        F  0.07219109  0.28751579  0.25094707    -0.15700
C437        C  0.98766526  0.34640750  0.28061638     0.14300
C438        C  0.97759953  0.32647521  0.28001239     0.01300
C439        C  0.98985866  0.30801863  0.27728388     0.16300
C440        C  0.01212899  0.30931978  0.27726622     0.25700
C441        C  0.02230768  0.32915320  0.28016642    -0.40700
C442        C  0.00981857  0.34777702  0.28058562     0.32700
C443        C  0.95504528  0.32490250  0.28626482     0.01400
F444        F  0.98030187  0.28861944  0.27643700    -0.13000
F445        F  0.01903245  0.36730494  0.28213513    -0.13500
C446        C  0.93888736  0.32153381  0.27123064     0.16300
C447        C  0.91751229  0.32142974  0.27763229     0.25700
C448        C  0.91211522  0.32482455  0.29916192    -0.40600
C449        C  0.92849704  0.32764619  0.31417492     0.32700
C450        C  0.94971902  0.32766948  0.30775986     0.14400
F451        F  0.94378430  0.31900982  0.25034588    -0.13000
F452        F  0.92401427  0.33021686  0.33515758    -0.13500
F453        F  0.90212280  0.31893131  0.26266510    -0.15800
F454        F  0.96520942  0.33058419  0.32256079    -0.14300
F455        F  0.97599337  0.36446365  0.28277834    -0.14300
F456        F  0.02357488  0.29102726  0.27636588    -0.15700
C457        C  0.09596320  0.37167633  0.35653683     0.14300
C458        C  0.08556831  0.39144839  0.35687556     0.01300
C459        C  0.07187767  0.39689309  0.34009139     0.16300
C460        C  0.06805909  0.38250459  0.32353551     0.25700
C461        C  0.07784649  0.36232341  0.32348202    -0.40700
C462        C  0.09216518  0.35720869  0.33996971     0.32700
C463        C  0.08755588  0.40570050  0.37552653     0.01400
F464        F  0.06189766  0.41606352  0.33996908    -0.13000
F465        F  0.10149205  0.33773831  0.34079167    -0.13500
C466        C  0.10666746  0.41642757  0.37995702     0.16300
C467        C  0.10810443  0.43025784  0.39744870     0.25700
C468        C  0.09039484  0.43349935  0.41085501    -0.40600
C469        C  0.07139576  0.42228243  0.40646046     0.32700
C470        C  0.07002073  0.40864225  0.38896256     0.14400
F471        F  0.12375593  0.41390405  0.36701057    -0.13000
F472        F  0.05404984  0.42432006  0.41916122    -0.13500
F473        F  0.12664338  0.44084195  0.40087418    -0.15800
F474        F  0.05150702  0.39810751  0.38518465    -0.14300
F475        F  0.10892978  0.36595641  0.37284337    -0.14300
F476        F  0.05463648  0.38828756  0.30761941    -0.15700
C477        C  0.10985352  0.39480685  0.51784826     0.14300
C478        C  0.09093444  0.38883296  0.52807219     0.01300
C479        C  0.07302267  0.40202108  0.52649391     0.16300
C480        C  0.07370100  0.42054265  0.51419267     0.25700
C481        C  0.09235201  0.42619575  0.50304656    -0.40700
C482        C  0.11060017  0.41332867  0.50541814     0.32700
C483        C  0.08939195  0.36844448  0.53972628     0.01400
F484        F  0.05475129  0.39682093  0.53680246    -0.13000
F485        F  0.12895339  0.41814022  0.49509242    -0.13500
C486        C  0.10061156  0.36531699  0.55878926     0.16300
C487        C  0.09749368  0.34672162  0.57072360     0.25700
C488        C  0.08305319  0.33101690  0.56372663    -0.40600
C489        C  0.07252522  0.33387108  0.54415330     0.32700
C490        C  0.07568098  0.35241933  0.53228125     0.14400
F491        F  0.11373765  0.38075430  0.56637088    -0.13000
F492        F  0.05896959  0.31878702  0.53659725    -0.13500
F493        F  0.10755211  0.34475287  0.58974212    -0.15800
F494        F  0.06507116  0.35493862  0.51361663    -0.14300
F495        F  0.12735139  0.38223774  0.51922963    -0.14300
F496        F  0.05598492  0.43283938  0.51315194    -0.15700
C497        C  0.10416971  0.55799530  0.40126940     0.14300
C498        C  0.08684425  0.55898207  0.38715611     0.01300
C499        C  0.07124461  0.54294486  0.38784260     0.16300
C500        C  0.07262209  0.52645127  0.40265094     0.25700
C501        C  0.08977685  0.52549674  0.41701464    -0.40700
C502        C  0.10568910  0.54131567  0.41604664     0.32700
C503        C  0.08468969  0.57657564  0.37159718     0.01400
F504        F  0.05474210  0.54309934  0.37388216    -0.13000
F505        F  0.12234303  0.54102563  0.42980999    -0.13500
C506        C  0.10009504  0.57980988  0.35571829     0.16300
C507        C  0.09649063  0.59450157  0.33931686     0.25700
C508        C  0.07730089  0.60603381  0.33846625    -0.40600
C509        C  0.06246847  0.60357522  0.35509597     0.32700
C510        C  0.06618268  0.58905770  0.37150348     0.14400
F511        F  0.11808558  0.56788808  0.35542129    -0.13000
F512        F  0.04422191  0.61511717  0.35544802    -0.13500
F513        F  0.11123770  0.59649542  0.32366499    -0.15800
F514        F  0.05143690  0.58682355  0.38714182    -0.14300
F515        F  0.11929818  0.57346398  0.40109914    -0.14300
F516        F  0.05733912  0.51112563  0.40258721    -0.15700
C517        C  0.07107376  0.54795095  0.52852521     0.14300
C518        C  0.08610562  0.54758812  0.54503576     0.01300
C519        C  0.10374341  0.53396807  0.54349693     0.16300
C520        C  0.10592198  0.52033057  0.52596671     0.25700
C521        C  0.09038255  0.52007732  0.50981556    -0.40700
C522        C  0.07315499  0.53433176  0.51110390     0.32700
C523        C  0.08255607  0.56060354  0.56431165     0.01400
F524        F  0.11831258  0.53320367  0.55943561    -0.13000
F525        F  0.05825634  0.53510640  0.49546131    -0.13500
C526        C  0.06448464  0.55690248  0.57688317     0.16300
C527        C  0.06023199  0.56975727  0.59447794     0.25700
C528        C  0.07399686  0.58667415  0.59987303    -0.40600
C529        C  0.09241517  0.59004251  0.58751758     0.32700
C530        C  0.09663226  0.57708764  0.56986432     0.14400
F531        F  0.05089672  0.54075248  0.57207033    -0.13000
F532        F  0.10586890  0.60640898  0.59191139    -0.13500
F533        F  0.04265633  0.56548914  0.60630580    -0.15800
F534        F  0.11402615  0.58112843  0.55771154    -0.14300
F535        F  0.05420643  0.56141031  0.52941359    -0.14300
F536        F  0.12260271  0.50664618  0.52535946    -0.15700
C537        C  0.77737232  0.71613410  0.27126859     0.14300
C538        C  0.79026104  0.70101978  0.26111276     0.01300
C539        C  0.78655679  0.69615353  0.23961994     0.16300
C540        C  0.76970838  0.70568836  0.22862878     0.25700
C541        C  0.75619227  0.72031098  0.23897114    -0.40700
C542        C  0.76053114  0.72571062  0.26036743     0.32700
C543        C  0.80666873  0.68935274  0.27331967     0.01400
F544        F  0.79877908  0.68151355  0.22948860    -0.13000
F545        F  0.74802244  0.73961601  0.27115749    -0.13500
C546        C  0.80067852  0.67667221  0.29070137     0.16300
C547        C  0.81585301  0.66496355  0.30193543     0.25700
C548        C  0.83752721  0.66558508  0.29596340    -0.40600
C549        C  0.84346899  0.67869928  0.27863984     0.32700
C550        C  0.82816546  0.69039587  0.26745536     0.14400
F551        F  0.77992459  0.67521817  0.29652463    -0.13000
F552        F  0.86402663  0.68017038  0.27223967    -0.13500
F553        F  0.80909542  0.65301037  0.31863857    -0.15800
F554        F  0.83436685  0.70289022  0.25092771    -0.14300
F555        F  0.78092009  0.72138267  0.29193995    -0.14300
F556        F  0.76659653  0.70042676  0.20790318    -0.15700
C557        C  0.65443180  0.81407972  0.28986869     0.14300
C558        C  0.66430237  0.82062868  0.27098989     0.01300
C559        C  0.66279221  0.84193100  0.26455242     0.16300
C560        C  0.65129531  0.85657188  0.27676213     0.25700
C561        C  0.64122321  0.85015128  0.29585645    -0.40700
C562        C  0.64308509  0.82862306  0.30224734     0.32700
C563        C  0.67592003  0.80496650  0.25797361     0.01400
F564        F  0.67217775  0.84846174  0.24621120    -0.13000
F565        F  0.63410600  0.82146431  0.32055522    -0.13500
C566        C  0.66463669  0.78971746  0.24619072     0.16300
C567        C  0.67545610  0.77362602  0.23532501     0.25700
C568        C  0.69783505  0.77239119  0.23628678    -0.40600
C569        C  0.70911239  0.78817008  0.24764536     0.32700
C570        C  0.69820687  0.80436768  0.25833072     0.14400
F571        F  0.64305051  0.79016898  0.24563427    -0.13000
F572        F  0.73068888  0.78787670  0.24854290    -0.13500
F573        F  0.66389579  0.75869041  0.22477500    -0.15800
F574        F  0.70934788  0.81907434  0.26963043    -0.14300
F575        F  0.65595334  0.79350916  0.29640835    -0.14300
F576        F  0.64985855  0.87690648  0.26958452    -0.15700
C577        C  0.39137666  0.85246437  0.41412560     0.14300
C578        C  0.39345999  0.84010759  0.39562347     0.01300
C579        C  0.40920857  0.82424849  0.39480623     0.16300
C580        C  0.42340481  0.82159900  0.41186798     0.25700
C581        C  0.42210189  0.83493376  0.42983655    -0.40700
C582        C  0.40558586  0.84998859  0.43100387     0.32700
C583        C  0.38027001  0.84525872  0.37676293     0.01400
F584        F  0.41154381  0.81214397  0.37706235    -0.13000
F585        F  0.40328785  0.86250052  0.44848416    -0.13500
C586        C  0.38171556  0.86563623  0.36769369     0.16300
C587        C  0.36820487  0.87162977  0.35113156     0.25700
C588        C  0.35270735  0.85735950  0.34322329    -0.40600
C589        C  0.35192935  0.83653654  0.35177969     0.32700
C590        C  0.36561289  0.83057614  0.36839983     0.14400
F591        F  0.39619630  0.87991811  0.37509936    -0.13000
F592        F  0.33743203  0.82213191  0.34474050    -0.13500
F593        F  0.37035318  0.89156392  0.34298871    -0.15800
F594        F  0.36392859  0.81076524  0.37692803    -0.14300
F595        F  0.37578660  0.86734032  0.41561861    -0.14300
F596        F  0.43915133  0.80692249  0.41026653    -0.15700
C597        C  0.37538397  0.85540803  0.58249149     0.14300
C598        C  0.37275493  0.83647688  0.57094717     0.01300
C599        C  0.35579357  0.82276237  0.57573839     0.16300
C600        C  0.34114722  0.82829738  0.59156843     0.25700
C601        C  0.34331476  0.84770302  0.60264703    -0.40700
C602        C  0.36080163  0.86100974  0.59820144     0.32700
C603        C  0.38695524  0.83219424  0.55288127     0.01400
F604        F  0.35296687  0.80450559  0.56449453    -0.13000
F605        F  0.36381881  0.87947446  0.60907064    -0.13500
C606        C  0.40375627  0.81761845  0.55476854     0.16300
C607        C  0.41908772  0.81620100  0.53867188     0.25700
C608        C  0.41777459  0.82954682  0.52074584    -0.40600
C609        C  0.40031850  0.84329523  0.51845821     0.32700
C610        C  0.38498607  0.84455571  0.53439883     0.14400
F611        F  0.40595783  0.80575047  0.57270049    -0.13000
F612        F  0.39840087  0.85587459  0.50096659    -0.13500
F613        F  0.43596711  0.80299677  0.54129964    -0.15800
F614        F  0.36861461  0.85847576  0.53223348    -0.14300
F615        F  0.39194400  0.86866687  0.57821610    -0.14300
F616        F  0.32430618  0.81524098  0.59527126    -0.15700
C617        C  0.52815125  0.86116658  0.40340023     0.14300
C618        C  0.54649088  0.84845702  0.40337123     0.01300
C619        C  0.54844347  0.83187920  0.41827035     0.16300
C620        C  0.53236048  0.82834552  0.43331409     0.25700
C621        C  0.51425085  0.84148088  0.43367739    -0.40700
C622        C  0.51221190  0.85777484  0.41844680     0.32700
C623        C  0.56366879  0.85319673  0.38806278     0.01400
F624        F  0.56620180  0.81961810  0.41866510    -0.13000
F625        F  0.49458535  0.87024268  0.41790975    -0.13500
C626        C  0.57410350  0.87294634  0.38897383     0.16300
C627        C  0.58843668  0.87884439  0.37308086     0.25700
C628        C  0.59256559  0.86509316  0.35585038    -0.40600
C629        C  0.58286940  0.84481009  0.35554849     0.32700
C630        C  0.56849813  0.83893899  0.37155938     0.14400
F631        F  0.57003224  0.88673606  0.40511515    -0.13000
F632        F  0.58632457  0.83112223  0.33919152    -0.13500
F633        F  0.59815547  0.89813167  0.37453027    -0.15800
F634        F  0.55844311  0.81980938  0.37035428    -0.14300
F635        F  0.52568535  0.87688137  0.38873994    -0.14300
F636        F  0.53487776  0.81270941  0.44803476    -0.15700
C637        C  0.52349169  0.81970543  0.56077197     0.14300
C638        C  0.53384860  0.83886926  0.56606497     0.01300
C639        C  0.53216808  0.85631698  0.55211874     0.16300
C640        C  0.51976005  0.85495876  0.53370149     0.25700
C641        C  0.50886572  0.83598819  0.52859827    -0.40700
C642        C  0.51119432  0.81822935  0.54217440     0.32700
C643        C  0.54616069  0.84108848  0.58618538     0.01400
F644        F  0.54266188  0.87478276  0.55632141    -0.13000
F645        F  0.50087916  0.79967485  0.53797187    -0.13500
C646        C  0.56344320  0.82761261  0.59071289     0.16300
C647        C  0.57651806  0.83152530  0.60840823     0.25700
C648        C  0.57268388  0.84917558  0.62172535    -0.40600
C649        C  0.55458382  0.86180079  0.61786958     0.32700
C650        C  0.54143961  0.85772850  0.60038162     0.14400
F651        F  0.56844496  0.81142683  0.57730292    -0.13000
F652        F  0.54976315  0.87839913  0.63084866    -0.13500
F653        F  0.59371432  0.81887838  0.61161878    -0.15800
F654        F  0.52427137  0.87039550  0.59702249    -0.14300
F655        F  0.52462120  0.80264613  0.57401329    -0.14300
F656        F  0.51850374  0.87229888  0.52082911    -0.15700
C657        C  0.59865675  0.94362180  0.65479755     0.14300
C658        C  0.61964684  0.95123342  0.65592819     0.01300
C659        C  0.63637977  0.93677492  0.65877942     0.16300
C660        C  0.63226955  0.91484909  0.65942215     0.25700
C661        C  0.61131579  0.90710073  0.65710461    -0.40700
C662        C  0.59450660  0.92176484  0.65536053     0.32700
C663        C  0.62401425  0.97392586  0.65148433     0.01400
F664        F  0.65679855  0.94381446  0.65957584    -0.13000
F665        F  0.57404923  0.91494936  0.65384451    -0.13500
C666        C  0.63190016  0.98771205  0.66724930     0.16300
C667        C  0.63397665  0.00960424  0.66306898     0.25700
C668        C  0.62820892  0.01787569  0.64301034    -0.40600
C669        C  0.62158107  0.00362438  0.62694452     0.32700
C670        C  0.61942432  0.98196372  0.63120388     0.14400
F671        F  0.63667639  0.98011558  0.68690745    -0.13000
F672        F  0.61691202  0.01062840  0.60702802    -0.13500
F673        F  0.64055131  0.02274156  0.67893013    -0.15800
F674        F  0.61249498  0.96876028  0.61552248    -0.14300
F675        F  0.58221611  0.95742156  0.65240522    -0.14300
F676        F  0.64895140  0.90123343  0.66084030    -0.15700
C677        C  0.30547956  0.94069762  0.61996073     0.14300
C678        C  0.30343230  0.95012106  0.64008163     0.01300
C679        C  0.29989212  0.93722295  0.65798958     0.16300
C680        C  0.29982555  0.91497589  0.65594783     0.25700
C681        C  0.30344642  0.90549106  0.63595441    -0.40700
C682        C  0.30547773  0.91860166  0.61788354     0.32700
C683        C  0.30724539  0.97319807  0.64222319     0.01400
F684        F  0.29783690  0.94612796  0.67756457    -0.13000
F685        F  0.30805939  0.91002502  0.59820994    -0.13500
C686        C  0.29052459  0.98732234  0.64640613     0.16300
C687        C  0.29387711  0.00936566  0.64506475     0.25700
C688        C  0.31407812  0.01751658  0.63945295    -0.40600
C689        C  0.33107656  0.00314997  0.63675988     0.32700
C690        C  0.32763050  0.98124829  0.63804789     0.14400
F691        F  0.27073246  0.97974835  0.65064058    -0.13000
F692        F  0.35105535  0.01018928  0.63248856    -0.13500
F693        F  0.27707074  0.02255915  0.64811226    -0.15800
F694        F  0.34412921  0.96775964  0.63453762    -0.14300
F695        F  0.30834740  0.95298792  0.60238912    -0.14300
F696        F  0.29777396  0.90280231  0.67369454    -0.15700
C697        C  0.59689233  0.00114824  0.29266643     0.14300
C698        C  0.61652335  0.99144630  0.29706104     0.01300
C699        C  0.63485739  0.00417920  0.29895197     0.16300
C700        C  0.63334882  0.02641488  0.29755626     0.25700
C701        C  0.61344662  0.03612450  0.29448384    -0.40700
C702        C  0.59534009  0.02329801  0.29154046     0.32700
C703        C  0.61731467  0.96836429  0.30179059     0.01400
F704        F  0.65392683  0.99517358  0.30357385    -0.13000
F705        F  0.57600811  0.03228805  0.28811097    -0.13500
C706        C  0.62962749  0.95442272  0.28948273     0.16300
C707        C  0.62999577  0.93257562  0.29411844     0.25700
C708        C  0.61802134  0.92424158  0.31127085    -0.40600
C709        C  0.60581112  0.93854176  0.32362617     0.32700
C710        C  0.60554721  0.96025668  0.31893040     0.14400
F711        F  0.64100748  0.96192702  0.27271199    -0.13000
F712        F  0.59396168  0.93173270  0.34036505    -0.13500
F713        F  0.64204732  0.91971982  0.28167885    -0.15800
F714        F  0.59390407  0.97351975  0.33139503    -0.14300
F715        F  0.57906828  0.98913594  0.29020209    -0.14300
F716        F  0.65100255  0.03846547  0.30086663    -0.15700
C717        C  0.28848689  0.14257092  0.29268900     0.14300
C718        C  0.27204475  0.13735480  0.27847832     0.01300
C719        C  0.26704107  0.11579685  0.27507302     0.16300
C720        C  0.27858034  0.09970542  0.28532154     0.25700
C721        C  0.29559825  0.10482628  0.29911287    -0.40700
C722        C  0.30017630  0.12658763  0.30282521     0.32700
C723        C  0.26075401  0.15441740  0.26662628     0.01400
F724        F  0.25138550  0.11026076  0.26123361    -0.13000
F725        F  0.31627865  0.13264586  0.31591556    -0.13500
C726        C  0.27231506  0.16884860  0.25401535     0.16300
C727        C  0.26191119  0.18501500  0.24283307     0.25700
C728        C  0.23959869  0.18706535  0.24384562    -0.40600
C729        C  0.22802006  0.17255280  0.25648950     0.32700
C730        C  0.23851320  0.15641285  0.26777452     0.14400
F731        F  0.29377470  0.16711742  0.25227699    -0.13000
F732        F  0.20649101  0.17364810  0.25761725    -0.13500
F733        F  0.27384997  0.19890503  0.23134002    -0.15800
F734        F  0.22695590  0.14287429  0.28005943    -0.14300
F735        F  0.29332222  0.16328248  0.29673243    -0.14300
F736        F  0.27309091  0.07912987  0.28149377    -0.15700
C737        C  0.29693405  0.99702336  0.30020159     0.14300
C738        C  0.31548225  0.98458436  0.30038867     0.01300
C739        C  0.33539459  0.99462894  0.30134811     0.16300
C740        C  0.33679229  0.01671206  0.30343454     0.25700
C741        C  0.31825247  0.02919799  0.30466499    -0.40700
C742        C  0.29829446  0.01926108  0.30224552     0.32700
C743        C  0.31435303  0.96119230  0.30266333     0.01400
F744        F  0.35350542  0.98286873  0.30132106    -0.13000
F745        F  0.28011460  0.03082020  0.30352137    -0.13500
C746        C  0.31020802  0.94789610  0.28517720     0.16300
C747        C  0.31126018  0.92565757  0.28744574     0.25700
C748        C  0.31658214  0.91652564  0.30725710    -0.40600
C749        C  0.32005597  0.93003854  0.32482572     0.32700
C750        C  0.31896273  0.95210036  0.32251236     0.14400
F751        F  0.30596939  0.95647020  0.26579918    -0.13000
F752        F  0.32451487  0.92191957  0.34436172    -0.13500
F753        F  0.30810978  0.91317136  0.27008543    -0.15800
F754        F  0.32277105  0.96472074  0.33966055    -0.14300
F755        F  0.27753304  0.98752078  0.29946549    -0.14300
F756        F  0.35633728  0.02584152  0.30492749    -0.15700
C757        C  0.36400190  0.10369793  0.37972611     0.14300
C758        C  0.38239066  0.09116308  0.38149787     0.01300
C759        C  0.38629984  0.07521968  0.36636676     0.16300
C760        C  0.37170314  0.07130422  0.35010825     0.25700
C761        C  0.35285467  0.08332203  0.34861795    -0.40700
C762        C  0.34932769  0.09984730  0.36337904     0.32700
C763        C  0.39721034  0.09393656  0.39953138     0.01400
F764        F  0.40431153  0.06334809  0.36741683    -0.13000
F765        F  0.33125149  0.11161794  0.36263222    -0.13500
C766        C  0.40062791  0.07698266  0.41368884     0.16300
C767        C  0.41579825  0.07871705  0.42980329     0.25700
C768        C  0.42785663  0.09751627  0.43209799    -0.40600
C769        C  0.42389022  0.11478743  0.41831606     0.32700
C770        C  0.40868619  0.11296958  0.40212992     0.14400
F771        F  0.38931724  0.05862047  0.41177432    -0.13000
F772        F  0.43537685  0.13306982  0.41983591    -0.13500
F773        F  0.41866536  0.06193537  0.44314844    -0.15800
F774        F  0.40580581  0.12944680  0.38842693    -0.14300
F775        F  0.35985949  0.11907536  0.39433371    -0.14300
F776        F  0.37613617  0.05577599  0.33574995    -0.15700
C777        C  0.40792094  0.07054467  0.54297082     0.14300
C778        C  0.40221482  0.08749108  0.55634755     0.01300
C779        C  0.41185112  0.10750928  0.55343358     0.16300
C780        C  0.42709540  0.11047154  0.53743025     0.25700
C781        C  0.43303156  0.09337454  0.52415704    -0.40700
C782        C  0.42319078  0.07337739  0.52715336     0.32700
C783        C  0.38610938  0.08399107  0.57317414     0.01400
F784        F  0.40678600  0.12407930  0.56634683    -0.13000
F785        F  0.42793912  0.05651547  0.51448685    -0.13500
C786        C  0.38898234  0.06763484  0.58816742     0.16300
C787        C  0.37289114  0.06262747  0.60263130     0.25700
C788        C  0.35365479  0.07406518  0.60257323    -0.40600
C789        C  0.35113153  0.09103740  0.58811294     0.32700
C790        C  0.36719769  0.09587773  0.57346451     0.14400
F791        F  0.40736909  0.05632056  0.58863772    -0.13000
F792        F  0.33269843  0.10223556  0.58735150    -0.13500
F793        F  0.37621145  0.04659192  0.61674871    -0.15800
F794        F  0.36384892  0.11148533  0.55887767    -0.14300
F795        F  0.39833835  0.05122637  0.54494963    -0.14300
F796        F  0.43625416  0.12995581  0.53521622    -0.15700
C797        C  0.54511992  0.08855216  0.34933552     0.14300
C798        C  0.55145260  0.10324261  0.36499484     0.01300
C799        C  0.57011892  0.11519544  0.36195099     0.16300
C800        C  0.58311120  0.11131988  0.34429126     0.25700
C801        C  0.57769484  0.09522851  0.32963414    -0.40700
C802        C  0.55820286  0.08445274  0.33189102     0.32700
C803        C  0.54005243  0.10392210  0.38556327     0.01400
F804        F  0.57660342  0.12941777  0.37689632    -0.13000
F805        F  0.55214576  0.06942071  0.31755708    -0.13500
C806        C  0.53836257  0.08520550  0.39766248     0.16300
C807        C  0.52719274  0.08510608  0.41678976     0.25700
C808        C  0.51738416  0.10382808  0.42436793    -0.40600
C809        C  0.51979803  0.12283686  0.41258644     0.32700
C810        C  0.53104468  0.12284612  0.39331906     0.14400
F811        F  0.54763049  0.06687619  0.39091404    -0.13000
F812        F  0.51073075  0.14126765  0.41926979    -0.13500
F813        F  0.52590462  0.06648276  0.42773678    -0.15800
F814        F  0.53254717  0.14115635  0.38190194    -0.14300
F815        F  0.52669478  0.07742575  0.35151018    -0.14300
F816        F  0.60181371  0.12203144  0.34255057    -0.15700
C817        C  0.53761177  0.10941885  0.55492513     0.14300
C818        C  0.55458791  0.09513655  0.55252047     0.01300
C819        C  0.55745985  0.08453499  0.53308541     0.16300
C820        C  0.54285662  0.08724805  0.51659685     0.25700
C821        C  0.52525431  0.10073472  0.51927992    -0.40700
C822        C  0.52303673  0.11229719  0.53832300     0.32700
C823        C  0.56812524  0.08950900  0.57078596     0.01400
F824        F  0.57405412  0.07098158  0.53039925    -0.13000
F825        F  0.50594404  0.12511172  0.54142979    -0.13500
C826        C  0.56621503  0.06922385  0.57989075     0.16300
C827        C  0.57980024  0.06294918  0.59625274     0.25700
C828        C  0.59583305  0.07685412  0.60373639    -0.40600
C829        C  0.59722974  0.09752699  0.59490787     0.32700
C830        C  0.58340502  0.10377787  0.57859865     0.14400
F831        F  0.55116905  0.05538692  0.57277221    -0.13000
F832        F  0.61235830  0.11152027  0.60146438    -0.13500
F833        F  0.57714014  0.04318755  0.60466398    -0.15800
F834        F  0.58538913  0.12349747  0.56992414    -0.14300
F835        F  0.53445786  0.11952418  0.57376163    -0.14300
F836        F  0.54564508  0.07635399  0.49813905    -0.15700
C837        C  0.41266006  0.37496950  0.84805897     0.14300
C838        C  0.39618724  0.37577165  0.83303642     0.01300
C839        C  0.39818228  0.38921079  0.81525480     0.16300
C840        C  0.41574644  0.40292300  0.81343484     0.25700
C841        C  0.43143740  0.40333101  0.82946260    -0.40700
C842        C  0.43014248  0.38852246  0.84627638     0.32700
C843        C  0.37644772  0.36362303  0.83708396     0.01400
F844        F  0.38252540  0.38998263  0.80038809    -0.13000
F845        F  0.44549206  0.38761376  0.86147147    -0.13500
C846        C  0.36429627  0.36823450  0.85525087     0.16300
C847        C  0.34704400  0.35535924  0.86082204     0.25700
C848        C  0.34155468  0.33761479  0.84825276    -0.40600
C849        C  0.35317235  0.33362407  0.82947245     0.32700
C850        C  0.37051318  0.34654211  0.82396605     0.14400
F851        F  0.36942474  0.38508531  0.86782364    -0.13000
F852        F  0.34854927  0.31655118  0.81704316    -0.13500
F853        F  0.33575769  0.36025711  0.87857510    -0.15800
F854        F  0.38215066  0.34174877  0.80642203    -0.14300
F855        F  0.41141443  0.36149886  0.86494075    -0.14300
F856        F  0.41660547  0.41674200  0.79682824    -0.15700
C857        C  0.59389140  0.36628882  0.82155905     0.14300
C858        C  0.58567303  0.38133886  0.83580829     0.01300
C859        C  0.59641506  0.38548756  0.85490433     0.16300
C860        C  0.61447210  0.37386234  0.86037568     0.25700
C861        C  0.62206384  0.35760455  0.84687200    -0.40700
C862        C  0.61197324  0.35446520  0.82700574     0.32700
C863        C  0.56478719  0.39127286  0.83212304     0.01400
F864        F  0.58889505  0.40037157  0.86865201    -0.13000
F865        F  0.61875898  0.33918363  0.81332968    -0.13500
C866        C  0.54758648  0.38530270  0.84504295     0.16300
C867        C  0.52842872  0.39638426  0.84394991     0.25700
C868        C  0.52611515  0.41356214  0.82979508    -0.40600
C869        C  0.54300093  0.41884152  0.81602365     0.32700
C870        C  0.56229484  0.40776540  0.81725089     0.14400
F871        F  0.54963478  0.36909618  0.85922245    -0.13000
F872        F  0.54134254  0.43560669  0.80245883    -0.13500
F873        F  0.51223007  0.39056758  0.85702203    -0.15800
F874        F  0.57887436  0.41386047  0.80480620    -0.14300
F875        F  0.58371117  0.36221692  0.80293209    -0.14300
F876        F  0.62412704  0.37824027  0.87921647    -0.15700
C877        C  0.39721218  0.51148695  0.86294717     0.14300
C878        C  0.39189440  0.52550605  0.84639233     0.01300
C879        C  0.40169510  0.52317688  0.82647282     0.16300
C880        C  0.41736641  0.50765225  0.82343069     0.25700
C881        C  0.42353186  0.49420415  0.84035674    -0.40700
C882        C  0.41281335  0.49598456  0.86000265     0.32700
C883        C  0.37716097  0.54335596  0.85051830     0.01400
F884        F  0.39678109  0.53658689  0.81024413    -0.13000
F885        F  0.41752357  0.48291137  0.87656776    -0.13500
C886        C  0.38234529  0.55851152  0.86611897     0.16300
C887        C  0.36815921  0.57481351  0.87110132     0.25700
C888        C  0.34851706  0.57636455  0.86046741    -0.40600
C889        C  0.34361389  0.56160030  0.84431578     0.32700
C890        C  0.35782922  0.54514575  0.83943668     0.14400
F891        F  0.40125124  0.55750569  0.87654088    -0.06800
F892        F  0.32468488  0.56249210  0.83394938    -0.13500
F893        F  0.37376522  0.58923670  0.88622039    -0.15800
F894        F  0.35239935  0.53051089  0.82447142    -0.14300
F895        F  0.38744087  0.51303769  0.88215812    -0.14300
F896        F  0.42699012  0.50639587  0.80413737    -0.15700
C897        C  0.55034579  0.51889845  0.83313146     0.14300
C898        C  0.54916703  0.53167149  0.85146677     0.01300
C899        C  0.53130993  0.53004182  0.86479234     0.16300
C900        C  0.51524321  0.51532930  0.86030658     0.25700
C901        C  0.51663536  0.50213295  0.84227058    -0.40700
C902        C  0.53413406  0.50428684  0.82849933     0.32700
C903        C  0.56674850  0.54630842  0.85712461     0.01400
F904        F  0.52950667  0.54266104  0.88225273    -0.13000
F905        F  0.53616808  0.49138907  0.81127801    -0.13500
C906        C  0.57258587  0.56295250  0.84338768     0.16300
C907        C  0.58852726  0.57738046  0.84926389     0.25700
C908        C  0.59890165  0.57543350  0.86909090    -0.40600
C909        C  0.59329943  0.55836800  0.88258611     0.32700
C910        C  0.57740569  0.54397149  0.87663025     0.14400
F911        F  0.56227033  0.56570749  0.82459803    -0.13000
F912        F  0.60324628  0.55546747  0.90155395    -0.13500
F913        F  0.59310454  0.59374203  0.83587601    -0.15800
F914        F  0.57242184  0.52764667  0.88993357    -0.14300
F915        F  0.56765093  0.51991054  0.82025225    -0.14300
F916        F  0.49831701  0.51392347  0.87366043    -0.15700
C917        C  0.65552892  0.65673551  0.14554002     0.14300
C918        C  0.66524042  0.67564638  0.13854408     0.01300
C919        C  0.66210446  0.68239206  0.11748683     0.16300
C920        C  0.64919337  0.67060324  0.10368033     0.25700
C921        C  0.63905238  0.65177412  0.11070932    -0.40700
C922        C  0.64253058  0.64492025  0.13180972     0.32700
C923        C  0.67769930  0.68889462  0.15356470     0.01400
F924        F  0.67154565  0.70049709  0.11030202    -0.13000
F925        F  0.63354338  0.62667949  0.13920126    -0.13500
C926        C  0.69613948  0.68089696  0.16325630     0.16300
C927        C  0.70707542  0.69298989  0.17848299     0.25700
C928        C  0.69966823  0.71340032  0.18443331    -0.40600
C929        C  0.68149843  0.72157585  0.17399229     0.32700
C930        C  0.67067395  0.70941885  0.15881021     0.14400
F931        F  0.70352191  0.66127200  0.15800625    -0.13000
F932        F  0.67386597  0.74127182  0.17854622    -0.13500
F933        F  0.72462457  0.68437406  0.18764120    -0.15800
F934        F  0.65281443  0.71745834  0.14969790    -0.14300
F935        F  0.65820262  0.64999280  0.16590323    -0.14300
F936        F  0.64622539  0.67802877  0.08359847    -0.15700
C937        C  0.63251463  0.64007385  0.95649288     0.14300
C938        C  0.63089669  0.62306663  0.97090726     0.01300
C939        C  0.63169481  0.60204442  0.96333328     0.16300
C940        C  0.63290073  0.59803618  0.94152145     0.25700
C941        C  0.63335563  0.61501742  0.92691511    -0.40700
C942        C  0.63381166  0.63609391  0.93460631     0.32700
C943        C  0.62640014  0.62700169  0.99360833     0.01400
F944        F  0.63068778  0.58538822  0.97710583    -0.13000
F945        F  0.63401212  0.65284479  0.92093258    -0.13500
C946        C  0.60668635  0.62084898  0.00200655     0.16300
C947        C  0.60260732  0.62287154  0.02371391     0.25700
C948        C  0.61835451  0.63088105  0.03763326    -0.40600
C949        C  0.63780493  0.63803285  0.02891060     0.32700
C950        C  0.64174287  0.63610506  0.00704360     0.14400
F951        F  0.59139739  0.61259914  0.98911277    -0.13000
F952        F  0.65340726  0.64604326  0.04154394    -0.13500
F953        F  0.58322126  0.61673243  0.03101657    -0.15800
F954        F  0.66086393  0.64228946  0.99911288    -0.14300
F955        F  0.63154684  0.66049814  0.96353499    -0.14300
F956        F  0.63328907  0.57752653  0.93464936    -0.15700
C957        C  0.65901924  0.30316292  0.93811057     0.14300
C958        C  0.65857061  0.32163550  0.95066812     0.01300
C959        C  0.66019928  0.34170620  0.94098178     0.16300
C960        C  0.66107798  0.34338495  0.91887228     0.25700
C961        C  0.66039989  0.32498181  0.90614509    -0.40700
C962        C  0.66003391  0.30480566  0.91591556     0.32700
C963        C  0.65361482  0.32033224  0.97350361     0.01400
F964        F  0.65995270  0.35970846  0.95296817    -0.13000
F965        F  0.65892377  0.28680126  0.90398894    -0.13500
C966        C  0.66909423  0.31437651  0.98840571     0.16300
C967        C  0.66444449  0.31486610  0.01020612     0.25700
C968        C  0.64415209  0.32130308  0.01731798    -0.40600
C969        C  0.62847091  0.32640415  0.00205548     0.32700
C970        C  0.63324581  0.32602235  0.98042309     0.14400
F971        F  0.68887842  0.30878182  0.98185181    -0.13000
F972        F  0.60840307  0.33178055  0.00793614    -0.13500
F973        F  0.68004014  0.30980303  0.02426001    -0.15800
F974        F  0.61797284  0.33143139  0.96611309    -0.14300
F975        F  0.65702702  0.28366758  0.94727734    -0.14300
F976        F  0.66195454  0.36303337  0.90984380    -0.15700
C977        C  0.32228357  0.60856510  0.95398016     0.14300
C978        C  0.32002393  0.62982672  0.96047203     0.01300
C979        C  0.31481932  0.64546459  0.94536120     0.16300
C980        C  0.31302275  0.64004137  0.92378692     0.25700
C981        C  0.31650695  0.61889476  0.91713029    -0.40700
C982        C  0.32057287  0.60313619  0.93254412     0.32700
C983        C  0.32479721  0.63557911  0.98275810     0.01400
F984        F  0.31261086  0.66612242  0.95135393    -0.13000
F985        F  0.32314637  0.58242544  0.92684843    -0.13500
C986        C  0.34531979  0.63205935  0.99076380     0.16300
C987        C  0.34965794  0.63499845  0.01232218     0.25700
C988        C  0.33348069  0.64148131  0.02641058    -0.40600
C989        C  0.31313675  0.64609026  0.01811743     0.32700
C990        C  0.30885551  0.64313476  0.99641787     0.14400
F991        F  0.36109966  0.62524161  0.97768795    -0.13000
F992        F  0.29703076  0.65218976  0.03112595    -0.13500
F993        F  0.36967825  0.63109396  0.01942886    -0.15800
F994        F  0.28887437  0.64652583  0.98896451    -0.14300
F995        F  0.32665613  0.59308875  0.96844460    -0.14300
F996        F  0.30918020  0.65566837  0.90935257    -0.15700
C997        C  0.27848204  0.28717922  0.13355707     0.14300
C998        C  0.26750905  0.26814033  0.12970155     0.01300
C999        C  0.26559345  0.26057844  0.10877923     0.16300
C1000       C  0.27468760  0.27189278  0.09183403     0.25700
C1001       C  0.28574888  0.29113326  0.09556765    -0.40700
C1002       C  0.28741815  0.29863741  0.11674194     0.32700
C1003       C  0.25748653  0.25664160  0.14757685     0.01400
F1004       F  0.25510152  0.24206873  0.10482614    -0.13000
F1005       F  0.29735755  0.31730504  0.12134742    -0.13500
C1006       C  0.23531936  0.25678192  0.14985481     0.16300
C1007       C  0.22576928  0.24716894  0.16750639     0.25700
C1008       C  0.23827590  0.23709822  0.18320558    -0.40600
C1009       C  0.26055925  0.23671041  0.18061913     0.32700
C1010       C  0.27005187  0.24651695  0.16300569     0.14400
F1011       F  0.22295886  0.26682810  0.13525314    -0.13000
F1012       F  0.27328969  0.22761528  0.19550419    -0.13500
F1013       F  0.20424799  0.24774517  0.16916380    -0.15800
F1014       F  0.29156644  0.24637671  0.16111001    -0.14300
F1015       F  0.28015335  0.29493620  0.15367105    -0.14300
F1016       F  0.27289251  0.26377055  0.07189343    -0.15700
C1017       C  0.31638977  0.30603460  0.94275382     0.14300
C1018       C  0.29660979  0.29985168  0.95097825     0.01300
C1019       C  0.28021957  0.29403881  0.93696135     0.16300
C1020       C  0.28336498  0.29520732  0.91485913     0.25700
C1021       C  0.30298867  0.30233063  0.90650717    -0.40700
C1022       C  0.31961278  0.30722085  0.92081704     0.32700
C1023       C  0.29297713  0.30157941  0.97414185     0.01400
F1024       F  0.26095685  0.28804012  0.94468336    -0.13000
F1025       F  0.33907794  0.31331619  0.91367043    -0.13500
C1026       C  0.29025380  0.32185320  0.98311118     0.16300
C1027       C  0.29123804  0.32459817  0.00513512     0.25700
C1028       C  0.29479567  0.30706522  0.01859689    -0.40600
C1029       C  0.29599466  0.28651432  0.00973608     0.32700
C1030       C  0.29524997  0.28380866  0.98755983     0.14400
F1031       F  0.28781092  0.33917514  0.97038756    -0.13000
F1032       F  0.29959930  0.26934826  0.02237824    -0.13500
F1033       F  0.28946746  0.34454497  0.01331151    -0.15800
F1034       F  0.29811850  0.26410895  0.97913601    -0.14300
F1035       F  0.33250612  0.31148187  0.95610692    -0.14300
F1036       F  0.26690146  0.29032038  0.90175033    -0.15700
C1037       C  0.38949700  0.40746515  0.07207613     0.14300
C1038       C  0.38465684  0.39180667  0.08724238     0.01300
C1039       C  0.39592282  0.39138997  0.10655941     0.16300
C1040       C  0.41225961  0.40612627  0.11039276     0.25700
C1041       C  0.41757971  0.42147757  0.09489007    -0.40700
C1042       C  0.40574995  0.42214361  0.07581579     0.32700
C1043       C  0.36823347  0.37562740  0.08243593     0.01400
F1044       F  0.39156567  0.37626353  0.12139526    -0.13000
F1045       F  0.40973885  0.43713314  0.06073483    -0.13500
C1046       C  0.37072083  0.36210762  0.06479234     0.16300
C1047       C  0.35487339  0.34740513  0.05951289     0.25700
C1048       C  0.33636285  0.34581312  0.07195094    -0.40600
C1049       C  0.33396735  0.35920672  0.08974999     0.32700
C1050       C  0.34976549  0.37407172  0.09489895     0.14400
F1051       F  0.38868778  0.36298277  0.05283372    -0.13000
F1052       F  0.31604194  0.35835882  0.10176460    -0.13500
F1053       F  0.35792289  0.33428644  0.04260858    -0.15800
F1054       F  0.34680017  0.38733662  0.11169957    -0.14300
F1055       F  0.37836439  0.40856891  0.05357616    -0.14300
F1056       F  0.42328748  0.40487249  0.12893336    -0.15700
C1057       C  0.52805661  0.38874027  0.07708620     0.14300
C1058       C  0.54564443  0.38885426  0.09079226     0.01300
C1059       C  0.54566046  0.40199184  0.10885044     0.16300
C1060       C  0.52852059  0.41559660  0.11270901     0.25700
C1061       C  0.51131064  0.41621561  0.09842515    -0.40700
C1062       C  0.51098613  0.40234490  0.08085522     0.32700
C1063       C  0.56449677  0.37623098  0.08538517     0.01400
F1064       F  0.56276306  0.40243686  0.12205004    -0.13000
F1065       F  0.49429082  0.40225955  0.06712498    -0.13500
C1066       C  0.57726159  0.38235956  0.06813268     0.16300
C1067       C  0.59477571  0.37006759  0.06234451     0.25700
C1068       C  0.59975912  0.35147378  0.07380501    -0.40600
C1069       C  0.58704339  0.34553389  0.09128712     0.32700
C1070       C  0.56949508  0.35786592  0.09701148     0.14400
F1071       F  0.57277198  0.40034730  0.05698851    -0.13000
F1072       F  0.59111344  0.32739830  0.10234114    -0.13500
F1073       F  0.60707129  0.37657033  0.04579591    -0.15800
F1074       F  0.55703194  0.35162285  0.11352503    -0.14300
F1075       F  0.52771209  0.37580038  0.05976739    -0.14300
F1076       F  0.52943196  0.42918054  0.12950270    -0.15700
C1077       C  0.40107906  0.53666096  0.08571385     0.14300
C1078       C  0.40235295  0.55181181  0.10206194     0.01300
C1079       C  0.41387515  0.54716035  0.12062350     0.16300
C1080       C  0.42516729  0.52801747  0.12220096     0.25700
C1081       C  0.42502674  0.51345864  0.10515185    -0.40700
C1082       C  0.41230753  0.51765033  0.08722019     0.32700
C1083       C  0.39238660  0.57275502  0.09887761     0.01400
F1084       F  0.41508863  0.56160926  0.13665501    -0.13000
F1085       F  0.41109940  0.50351873  0.07088861    -0.13500
C1086       C  0.37456217  0.57872152  0.11083730     0.16300
C1087       C  0.36299132  0.59686536  0.10520067     0.25700
C1088       C  0.36912681  0.60915205  0.08744029    -0.40600
C1089       C  0.38779394  0.60383316  0.07638052     0.32700
C1090       C  0.39936301  0.58579659  0.08210964     0.14400
F1091       F  0.36753093  0.56617142  0.12698612    -0.13000
F1092       F  0.39451184  0.61576648  0.05964172    -0.13500
F1093       F  0.34488911  0.60136886  0.11605184    -0.15800
F1094       F  0.41693784  0.58050254  0.07073249    -0.14300
F1095       F  0.38932785  0.54057753  0.06799448    -0.14300
F1096       F  0.43728897  0.52439771  0.13971967    -0.15700
C1097       C  0.52996849  0.53952693  0.12662616     0.14300
C1098       C  0.54263507  0.54390995  0.10874808     0.01300
C1099       C  0.54258552  0.52959291  0.09157133     0.16300
C1100       C  0.52899273  0.51200672  0.09154403     0.25700
C1101       C  0.51517906  0.50829163  0.10878483    -0.40700
C1102       C  0.51635759  0.52178575  0.12669658     0.32700
C1103       C  0.55458139  0.56416686  0.10682467     0.01400
F1104       F  0.55530571  0.53306305  0.07444265    -0.13000
F1105       F  0.50340740  0.51864192  0.14369596    -0.13500
C1106       C  0.57172480  0.56900065  0.12036962     0.16300
C1107       C  0.58481899  0.58664532  0.11610447     0.25700
C1108       C  0.58092037  0.59954040  0.09816020    -0.40600
C1109       C  0.56264413  0.59560699  0.08579122     0.32700
C1110       C  0.54966898  0.57809968  0.09006361     0.14400
F1111       F  0.57658306  0.55589507  0.13685305    -0.13000
F1112       F  0.55765044  0.60836817  0.06906610    -0.13500
F1113       F  0.60210777  0.59013426  0.12857865    -0.15800
F1114       F  0.53265076  0.57425032  0.07728589    -0.14300
F1115       F  0.52984643  0.55309367  0.14344648    -0.14300
F1116       F  0.52904292  0.49886982  0.07436770    -0.15700
C1117       C  0.78806471  0.26792235  0.23642897     0.14300
C1118       C  0.78931934  0.26645259  0.25866387     0.01300
C1119       C  0.77491150  0.25337223  0.26964811     0.16300
C1120       C  0.75914416  0.24218377  0.25857613     0.25700
C1121       C  0.75743600  0.24404797  0.23627227    -0.40700
C1122       C  0.77232702  0.25681597  0.22531118     0.32700
C1123       C  0.80564240  0.27870042  0.27034542     0.01400
F1124       F  0.77611510  0.25148221  0.29114322    -0.13000
F1125       F  0.77177861  0.25854941  0.20378145    -0.13500
C1126       C  0.79968842  0.29496175  0.28442322     0.16300
C1127       C  0.81517471  0.30703161  0.29496139     0.25700
C1128       C  0.83702624  0.30297085  0.29165508    -0.40600
C1129       C  0.84280700  0.28636538  0.27760802     0.32700
C1130       C  0.82725466  0.27446989  0.26704771     0.14400
F1131       F  0.77881406  0.29952614  0.28752905    -0.13000
F1132       F  0.86350551  0.28137093  0.27408346    -0.13500
F1133       F  0.80862431  0.32294537  0.30801487    -0.15800
F1134       F  0.83330288  0.25861281  0.25366579    -0.14300
F1135       F  0.80181841  0.28055811  0.22551163    -0.14300
F1136       F  0.74516373  0.23015171  0.26983743    -0.15700
C1137       C  0.66531007  0.29681647  0.13066781     0.14300
C1138       C  0.67990445  0.28098176  0.12513696     0.01300
C1139       C  0.68447259  0.27713030  0.10367387     0.16300
C1140       C  0.67394996  0.28856862  0.08773352     0.25700
C1141       C  0.65870314  0.30416817  0.09312079    -0.40700
C1142       C  0.65488428  0.30841361  0.11490493     0.32700
C1143       C  0.68968933  0.26800963  0.14194148     0.01400
F1144       F  0.69871416  0.26186304  0.09818154    -0.13000
F1145       F  0.64097707  0.32369448  0.12118737    -0.13500
C1146       C  0.67772233  0.25210878  0.15201969     0.16300
C1147       C  0.68627876  0.24070901  0.16905851     0.25700
C1148       C  0.70703229  0.24519878  0.17645822    -0.40600
C1149       C  0.71913142  0.26094275  0.16581091     0.32700
C1150       C  0.71046866  0.27223416  0.14872414     0.14400
F1151       F  0.65751867  0.24793431  0.14556502    -0.13000
F1152       F  0.73929287  0.26566347  0.17195640    -0.13500
F1153       F  0.67385227  0.22584477  0.17867675    -0.15800
F1154       F  0.72212339  0.28777015  0.13918162    -0.14300
F1155       F  0.66103606  0.30092955  0.15145371    -0.14300
F1156       F  0.67839396  0.28391360  0.06711937    -0.15700
C1157       C  0.66988336  0.12000340  0.26381929     0.14300
C1158       C  0.66202236  0.14031360  0.25893344     0.01300
C1159       C  0.64094221  0.14546265  0.26391651     0.16300
C1160       C  0.62786041  0.13056806  0.27400051     0.25700
C1161       C  0.63566393  0.11016075  0.27917062    -0.40700
C1162       C  0.65678570  0.10495509  0.27378860     0.32700
C1163       C  0.67595792  0.15654025  0.24933417     0.01400
F1164       F  0.63312324  0.16506232  0.25920656    -0.13000
F1165       F  0.66499745  0.08559522  0.27877967    -0.13500
C1166       C  0.67563245  0.16007771  0.22732668     0.16300
C1167       C  0.68790005  0.17641007  0.21841576     0.25700
C1168       C  0.70063319  0.18958128  0.23148296    -0.40600
C1169       C  0.70106633  0.18565416  0.25359025     0.32700
C1170       C  0.68881395  0.16927310  0.26238492     0.14400
F1171       F  0.66320052  0.14785218  0.21452162    -0.13000
F1172       F  0.71259022  0.19818580  0.26690811    -0.13500
F1173       F  0.68727900  0.17926459  0.19700109    -0.15800
F1174       F  0.68897443  0.16621070  0.28377985    -0.14300
F1175       F  0.69031673  0.11487914  0.25912303    -0.14300
F1176       F  0.60745757  0.13606940  0.27842235    -0.15700
C1177       C  0.24180554  0.65396820  0.78291451     0.14300
C1178       C  0.25804818  0.66362761  0.79482362     0.01300
C1179       C  0.26376429  0.68480879  0.79045632     0.16300
C1180       C  0.25356914  0.69613259  0.77425405     0.25700
C1181       C  0.23746747  0.68641908  0.76193405    -0.40700
C1182       C  0.23163281  0.66517047  0.76662219     0.32700
C1183       C  0.26949806  0.65143841  0.81138257     0.01400
F1184       F  0.27965034  0.69439522  0.80157382    -0.13000
F1185       F  0.21640449  0.65490317  0.75520433    -0.13500
C1186       C  0.28052066  0.63280523  0.80596950     0.16300
C1187       C  0.29212960  0.62171054  0.82133955     0.25700
C1188       C  0.29311155  0.62914128  0.84255114    -0.40600
C1189       C  0.28158720  0.64768002  0.84794919     0.32700
C1190       C  0.26991705  0.65864854  0.83250682     0.14400
F1191       F  0.28051622  0.62562684  0.78557847    -0.13000
F1192       F  0.28179978  0.65556734  0.86806148    -0.13500
F1193       F  0.30242369  0.60372359  0.81525347    -0.15800
F1194       F  0.25894754  0.67636985  0.83820175    -0.14300
F1195       F  0.23575787  0.63360615  0.78709666    -0.14300
F1196       F  0.25952900  0.71662993  0.77077594    -0.15700
C1197       C  0.26385271  0.77413014  0.71192181     0.14300
C1198       C  0.25825824  0.78105630  0.69145843     0.01300
C1199       C  0.24212468  0.77038578  0.68030615     0.16300
C1200       C  0.23183910  0.75284407  0.68934477     0.25700
C1201       C  0.23751387  0.74555020  0.70984404    -0.40700
C1202       C  0.25357538  0.75660917  0.72108529     0.32700
C1203       C  0.26982105  0.79881250  0.68123637     0.01400
F1204       F  0.23681891  0.77653614  0.66026898    -0.13000
F1205       F  0.25935009  0.75067175  0.74102958    -0.13500
C1206       C  0.29160330  0.79683977  0.67680598     0.16300
C1207       C  0.30222043  0.81274974  0.66545794     0.25700
C1208       C  0.29123315  0.83097560  0.65844515    -0.40600
C1209       C  0.26957609  0.83327742  0.66355448     0.32700
C1210       C  0.25893609  0.81724513  0.67478644     0.14400
F1211       F  0.30241785  0.77911122  0.68279349    -0.13000
F1212       F  0.25845436  0.85054117  0.65683278    -0.13500
F1213       F  0.32326844  0.81029158  0.66129531    -0.15800
F1214       F  0.23790980  0.81953719  0.67911689    -0.14300
F1215       F  0.27926455  0.78442511  0.72307640    -0.14300
F1216       F  0.21678204  0.74271633  0.67761283    -0.15700
C1217       C  0.14919706  0.66823570  0.71070503     0.14300
C1218       C  0.14526260  0.67134199  0.68895587     0.01300
C1219       C  0.15850083  0.68500146  0.67722280     0.16300
C1220       C  0.17582612  0.69501647  0.68694863     0.25700
C1221       C  0.18027045  0.69147346  0.70866140    -0.40700
C1222       C  0.16654651  0.67817792  0.72049725     0.32700
C1223       C  0.12813080  0.65939351  0.67815814     0.01400
F1224       F  0.15480503  0.68836034  0.65618938    -0.13000
F1225       F  0.16992789  0.67466005  0.74155276    -0.13500
C1226       C  0.10674489  0.66280738  0.68341704     0.16300
C1227       C  0.09061045  0.65164781  0.67281643     0.25700
C1228       C  0.09563249  0.63670710  0.65673744    -0.40600
C1229       C  0.11730484  0.63314908  0.65190498     0.32700
C1230       C  0.13328092  0.64442110  0.66246972     0.14400
F1231       F  0.10147391  0.67728828  0.69856711    -0.13000
F1232       F  0.12329596  0.61872371  0.63698485    -0.13500
F1233       F  0.07013697  0.65572916  0.67827839    -0.15800
F1234       F  0.15393993  0.64051878  0.65753647    -0.14300
F1235       F  0.13666136  0.65494760  0.72228791    -0.14300
F1236       F  0.18872511  0.70739175  0.67479996    -0.15700
C1237       C  0.25353953  0.26528011  0.82107393     0.14300
C1238       C  0.26091937  0.26404573  0.80007237     0.01300
C1239       C  0.28027377  0.27366521  0.79463293     0.16300
C1240       C  0.29214745  0.28455431  0.80995354     0.25700
C1241       C  0.28488520  0.28600320  0.83119405    -0.40700
C1242       C  0.26540519  0.27611671  0.83655886     0.32700
C1243       C  0.24875893  0.25240258  0.78370990     0.01400
F1244       F  0.28767552  0.27250847  0.77436172    -0.13000
F1245       F  0.25759033  0.27715004  0.85665850    -0.13500
C1246       C  0.23171243  0.26218138  0.77320239     0.16300
C1247       C  0.22150278  0.25187536  0.75625746     0.25700
C1248       C  0.22822919  0.23147409  0.74951945    -0.40600
C1249       C  0.24489543  0.22146107  0.76089243     0.32700
C1250       C  0.25511252  0.23194092  0.77764161     0.14400
F1251       F  0.22547351  0.28208169  0.77888145    -0.13000
F1252       F  0.25173525  0.20163287  0.75571414    -0.13500
F1253       F  0.20550615  0.26226566  0.74614257    -0.15800
F1254       F  0.27158704  0.22226037  0.78772409    -0.14300
F1255       F  0.23488911  0.25584493  0.82658286    -0.14300
F1256       F  0.31093202  0.29335072  0.80389100    -0.15700
C1257       C  0.11286406  0.25057586  0.64377520     0.14300
C1258       C  0.13195560  0.26138788  0.64790545     0.01300
C1259       C  0.13596431  0.28094237  0.63791049     0.16300
C1260       C  0.12106253  0.28969139  0.62394334     0.25700
C1261       C  0.10179746  0.27892302  0.61958814    -0.40700
C1262       C  0.09791043  0.25919471  0.62970875     0.32700
C1263       C  0.14831145  0.25171976  0.66166293     0.01400
F1264       F  0.15438578  0.29160734  0.64175406    -0.13000
F1265       F  0.07994083  0.24787792  0.62561207    -0.13500
C1266       C  0.16707253  0.24391778  0.65252354     0.16300
C1267       C  0.18258270  0.23443801  0.66523936     0.25700
C1268       C  0.17971528  0.23285157  0.68739829    -0.40600
C1269       C  0.16108271  0.24105230  0.69663673     0.32700
C1270       C  0.14535808  0.25026263  0.68378141     0.14400
F1271       F  0.17021991  0.24525389  0.63118200    -0.13000
F1272       F  0.15782045  0.23952919  0.71794170    -0.13500
F1273       F  0.20061485  0.22710329  0.65589985    -0.15800
F1274       F  0.12730134  0.25783161  0.69286131    -0.14300
F1275       F  0.10900588  0.23134118  0.65291180    -0.14300
F1276       F  0.12551678  0.30885213  0.61494776    -0.15700
C1277       C  0.26358086  0.15336817  0.69116836     0.14300
C1278       C  0.25372113  0.14152820  0.67505244     0.01300
C1279       C  0.23296107  0.14651570  0.66874651     0.16300
C1280       C  0.22215406  0.16340875  0.67836347     0.25700
C1281       C  0.23211050  0.17572110  0.69436173    -0.40700
C1282       C  0.25294559  0.17033764  0.70074553     0.32700
C1283       C  0.26549727  0.12428496  0.66455426     0.01400
F1284       F  0.22321835  0.13504773  0.65321101    -0.13000
F1285       F  0.26344994  0.18189565  0.71568947    -0.13500
C1286       C  0.26736410  0.10438226  0.67444355     0.16300
C1287       C  0.28009920  0.08855929  0.66543907     0.25700
C1288       C  0.29133675  0.09252630  0.64639856    -0.40600
C1289       C  0.28889166  0.11245551  0.63627745     0.32700
C1290       C  0.27605376  0.12816858  0.64531682     0.14400
F1291       F  0.25717260  0.10047210  0.69309182    -0.13000
F1292       F  0.29889901  0.11683624  0.61763746    -0.13500
F1293       F  0.28202791  0.06971014  0.67586522    -0.15800
F1294       F  0.27434455  0.14741933  0.63559235    -0.14300
F1295       F  0.28379211  0.14877801  0.69724402    -0.14300
F1296       F  0.20194543  0.16760099  0.67200518    -0.15700
C1297       C  0.72290142  0.26671558  0.77611444     0.14300
C1298       C  0.70521361  0.25974468  0.78774404     0.01300
C1299       C  0.69651575  0.23957704  0.78353550     0.16300
C1300       C  0.70501851  0.22676645  0.76744925     0.25700
C1301       C  0.72237564  0.23399252  0.75510741    -0.40700
C1302       C  0.73134692  0.25411156  0.75993766     0.32700
C1303       C  0.69514625  0.27408394  0.80338363     0.01400
F1304       F  0.67924546  0.23260109  0.79449838    -0.13000
F1305       F  0.74798033  0.26209984  0.74874761    -0.13500
C1306       C  0.68723028  0.29390221  0.79675722     0.16300
C1307       C  0.67735885  0.30747398  0.81126366     0.25700
C1308       C  0.67509597  0.30143464  0.83275218    -0.40600
C1309       C  0.68329449  0.28159939  0.83939781     0.32700
C1310       C  0.69322642  0.26806703  0.82480559     0.14400
F1311       F  0.68874779  0.29998084  0.77606348    -0.13000
F1312       F  0.68130959  0.27499605  0.85988157    -0.13500
F1313       F  0.67026331  0.32664567  0.80422218    -0.15800
F1314       F  0.70111858  0.24912625  0.83161370    -0.14300
F1315       F  0.73189208  0.28597176  0.78028108    -0.14300
F1316       F  0.69592006  0.20747328  0.76384702    -0.15700
C1317       C  0.83701184  0.25176683  0.65056436     0.14300
C1318       C  0.81628785  0.25876338  0.65447933     0.01300
C1319       C  0.80910091  0.27779304  0.64533019     0.16300
C1320       C  0.82263796  0.28998605  0.63259088     0.25700
C1321       C  0.84376123  0.28334797  0.62888580    -0.40700
C1322       C  0.85067802  0.26390195  0.63791063     0.32700
C1323       C  0.80235526  0.24679957  0.66895516     0.01400
F1324       F  0.78894248  0.28464087  0.64892707    -0.13000
F1325       F  0.87066174  0.25648336  0.63462452    -0.13500
C1326       C  0.79812722  0.25492310  0.68922505     0.16300
C1327       C  0.78368076  0.24465865  0.70256861     0.25700
C1328       C  0.77270230  0.22624004  0.69562699    -0.40600
C1329       C  0.77799964  0.21752135  0.67557065     0.32700
C1330       C  0.79275887  0.22774810  0.66240686     0.14400
F1331       F  0.80783922  0.27305764  0.69597880    -0.13000
F1332       F  0.76853623  0.19949086  0.66827779    -0.13500
F1333       F  0.78036068  0.25309520  0.72214681    -0.15800
F1334       F  0.79710403  0.21950133  0.64291556    -0.14300
F1335       F  0.84416611  0.23340287  0.65945680    -0.14300
F1336       F  0.81508014  0.30849135  0.62437304    -0.15700
C1337       C  0.68261370  0.10158059  0.67847944     0.14300
C1338       C  0.67765201  0.12333066  0.67692490     0.01300
C1339       C  0.65983386  0.12962624  0.66511192     0.16300
C1340       C  0.64696791  0.11450241  0.65517463     0.25700
C1341       C  0.65175777  0.09254173  0.65658701    -0.40700
C1342       C  0.66980510  0.08628724  0.66842480     0.32700
C1343       C  0.69089670  0.13970186  0.68750193     0.01400
F1344       F  0.65502460  0.15060730  0.66292377    -0.13000
F1345       F  0.67531098  0.06545274  0.67011914    -0.13500
C1346       C  0.71224983  0.14253928  0.68168453     0.16300
C1347       C  0.72416233  0.15929898  0.69029745     0.25700
C1348       C  0.71486552  0.17366411  0.70486758    -0.40600
C1349       C  0.69351792  0.17036798  0.71100150     0.32700
C1350       C  0.68173758  0.15353755  0.70243762     0.14400
F1351       F  0.72134391  0.12956365  0.66700361    -0.13000
F1352       F  0.68362382  0.18385449  0.72465302    -0.13500
F1353       F  0.74474741  0.16148171  0.68415341    -0.15800
F1354       F  0.66115215  0.15094259  0.70846529    -0.14300
F1355       F  0.69974988  0.09514472  0.68994452    -0.14300
F1356       F  0.62969912  0.12159617  0.64432180    -0.15700
C1357       C  0.26447544  0.79230107  0.23363386     0.14300
C1358       C  0.25895287  0.79648974  0.25482334     0.01300
C1359       C  0.24276694  0.78446905  0.26448564     0.16300
C1360       C  0.23269143  0.76798286  0.25333547     0.25700
C1361       C  0.23872565  0.76314432  0.23223783    -0.40700
C1362       C  0.25449400  0.77587228  0.22242689     0.32700
C1363       C  0.27115135  0.81240233  0.26720224     0.01400
F1364       F  0.23694881  0.78851632  0.28489456    -0.13000
F1365       F  0.26060784  0.77235778  0.20202223    -0.13500
C1366       C  0.27142320  0.83391281  0.26113193     0.16300
C1367       C  0.28396114  0.84865905  0.27222721     0.25700
C1368       C  0.29660303  0.84211759  0.28966238    -0.40600
C1369       C  0.29605247  0.82042351  0.29569791     0.32700
C1370       C  0.28348151  0.80580942  0.28457723     0.14400
F1371       F  0.25948787  0.84064101  0.24441773    -0.13000
F1372       F  0.30760030  0.81313007  0.31241428    -0.13500
F1373       F  0.28387384  0.86923969  0.26557363    -0.15800
F1374       F  0.28378093  0.78498455  0.29046007    -0.14300
F1375       F  0.28022742  0.80359156  0.22402861    -0.14300
F1376       F  0.21760578  0.75635098  0.26356348    -0.15700
C1377       C  0.29977145  0.66773736  0.13533417     0.14300
C1378       C  0.28583254  0.68349654  0.12794514     0.01300
C1379       C  0.28686018  0.68991087  0.10655468     0.16300
C1380       C  0.30109845  0.68007820  0.09254749     0.25700
C1381       C  0.31448300  0.66351523  0.09970659    -0.40700
C1382       C  0.31386700  0.65779973  0.12145503     0.32700
C1383       C  0.27030402  0.69299605  0.14280770     0.01400
F1384       F  0.27369807  0.70532700  0.09909105    -0.13000
F1385       F  0.32652012  0.64223531  0.12946431    -0.13500
C1386       C  0.27059551  0.71493594  0.14700624     0.16300
C1387       C  0.25753806  0.72345350  0.16283002     0.25700
C1388       C  0.24411574  0.71011289  0.17497356    -0.40600
C1389       C  0.24318928  0.68823919  0.17001284     0.32700
C1390       C  0.25610000  0.67982011  0.15402042     0.14400
F1391       F  0.28423092  0.72800194  0.13645577    -0.13000
F1392       F  0.23058891  0.67472683  0.18124598    -0.13500
F1393       F  0.25826485  0.74477269  0.16636677    -0.15800
F1394       F  0.25513535  0.65861280  0.14980607    -0.14300
F1395       F  0.29973720  0.66191541  0.15616149    -0.14300
F1396       F  0.30165958  0.68679747  0.07201336    -0.15700
C1397       C  0.11288121  0.67067284  0.24735591     0.14300
C1398       C  0.13305537  0.67298040  0.25659342     0.01300
C1399       C  0.13670485  0.66515516  0.27713533     0.16300
C1400       C  0.12036477  0.65523600  0.28848780     0.25700
C1401       C  0.09992729  0.65283003  0.27941101    -0.40700
C1402       C  0.09643318  0.66063206  0.25860567     0.32700
C1403       C  0.15033526  0.68407896  0.24521480     0.01400
F1404       F  0.15612000  0.66745556  0.28634901    -0.13000
F1405       F  0.07725911  0.65827896  0.24893108    -0.13500
C1406       C  0.15146682  0.70638587  0.24561740     0.16300
C1407       C  0.16891650  0.71695866  0.23669339     0.25700
C1408       C  0.18544039  0.70534680  0.22701736    -0.40600
C1409       C  0.18394856  0.68294160  0.22618528     0.32700
C1410       C  0.16657467  0.67241210  0.23535045     0.14400
F1411       F  0.13589903  0.71787869  0.25518100    -0.13000
F1412       F  0.19973483  0.67114573  0.21738111    -0.13500
F1413       F  0.16959168  0.73856953  0.23745019    -0.15800
F1414       F  0.16578380  0.65078919  0.23501997    -0.14300
F1415       F  0.10918365  0.67804016  0.22737620    -0.14300
F1416       F  0.12458540  0.64842209  0.30856000    -0.15700
C1417       C  0.78421697  0.70416341  0.69560965     0.14300
C1418       C  0.78789235  0.68231993  0.69871025     0.01300
C1419       C  0.77581131  0.67116572  0.71379756     0.16300
C1420       C  0.75972463  0.68140146  0.72507980     0.25700
C1421       C  0.75532762  0.70318633  0.72152187    -0.40700
C1422       C  0.76806008  0.71454117  0.70689710     0.32700
C1423       C  0.80376936  0.67076372  0.68581417     0.01400
F1424       F  0.77947133  0.65015511  0.71745531    -0.13000
F1425       F  0.76486788  0.73564072  0.70339165    -0.13500
C1426       C  0.82541776  0.67602316  0.68704059     0.16300
C1427       C  0.84048956  0.66404788  0.67589889     0.25700
C1428       C  0.83414264  0.64647431  0.66333235    -0.40600
C1429       C  0.81226378  0.64164643  0.66179531     0.32700
C1430       C  0.79729561  0.65369004  0.67290915     0.14400
F1431       F  0.83203704  0.69234915  0.69959804    -0.13000
F1432       F  0.80523699  0.62485512  0.65010464    -0.13500
F1433       F  0.86127917  0.66970323  0.67754953    -0.15800
F1434       F  0.77636809  0.64853191  0.67124614    -0.14300
F1435       F  0.79583192  0.71527775  0.68115072    -0.14300
F1436       F  0.74801095  0.66959356  0.73890437    -0.15700
C1437       C  0.67316926  0.78672844  0.72565272     0.14300
C1438       C  0.67290568  0.78879722  0.70344151     0.01300
C1439       C  0.68605555  0.77579353  0.69099697     0.16300
C1440       C  0.69876509  0.76024460  0.70058111     0.25700
C1441       C  0.69838944  0.75741396  0.72283173    -0.40700
C1442       C  0.68581171  0.77115994  0.73530954     0.32700
C1443       C  0.65845508  0.80409881  0.69311724     0.01400
F1444       F  0.68603235  0.77773356  0.66947389    -0.13000
F1445       F  0.68569342  0.76949276  0.75686027    -0.13500
C1446       C  0.66594471  0.82418724  0.68693938     0.16300
C1447       C  0.65239910  0.83852304  0.67667761     0.25700
C1448       C  0.63109209  0.83291271  0.67228833    -0.40600
C1449       C  0.62367017  0.81266139  0.67851772     0.32700
C1450       C  0.63725890  0.79841442  0.68894821     0.14400
F1451       F  0.68643831  0.82986578  0.69080267    -0.13000
F1452       F  0.60316436  0.80682682  0.67498576    -0.13500
F1453       F  0.66035233  0.85769180  0.67056523    -0.15800
F1454       F  0.62979250  0.77900316  0.69494059    -0.14300
F1455       F  0.66094554  0.79961506  0.73793270    -0.14300
F1456       F  0.71053500  0.74726915  0.68796075    -0.15700
C1457       C  0.66733102  0.68398038  0.79061437     0.14300
C1458       C  0.67962826  0.67314286  0.80575218     0.01300
C1459       C  0.70178566  0.67562132  0.80582611     0.16300
C1460       C  0.71164412  0.68859773  0.79067997     0.25700
C1461       C  0.69940198  0.69948507  0.77539423    -0.40700
C1462       C  0.67711540  0.69719946  0.77560525     0.32700
C1463       C  0.66932963  0.65935549  0.82164437     0.01400
F1464       F  0.71385802  0.66517423  0.82038677    -0.13000
F1465       F  0.66487242  0.70697254  0.76072096    -0.13500
C1466       C  0.66263561  0.63877653  0.81612693     0.16300
C1467       C  0.65286220  0.62570667  0.83127539     0.25700
C1468       C  0.64954766  0.63312073  0.85222248    -0.40600
C1469       C  0.65645342  0.65383472  0.85761474     0.32700
C1470       C  0.66627889  0.66678255  0.84242493     0.14400
F1471       F  0.66577819  0.63129204  0.79609831    -0.13000
F1472       F  0.65323726  0.66186794  0.87740386    -0.13500
F1473       F  0.64702611  0.60568550  0.82548099    -0.15800
F1474       F  0.67257069  0.68675772  0.84788358    -0.14300
F1475       F  0.64586413  0.68158495  0.79029870    -0.14300
F1476       F  0.73315481  0.69057469  0.79100050    -0.15700
loop_ 
_geom_bond_atom_site_label_1 
_geom_bond_atom_site_label_2 
_geom_bond_distance 
_geom_bond_site_symmetry_2 
_ccdc_geom_bond_type 
C1            N2   1.359       .  A
C1            N6   1.361       .  A
C1         C1441   1.481       .  S
N2            C3   1.356       .  A
C3            N4   1.353       .  A
C3         C1461   1.475       .  S
N4            C5   1.356       .  A
C5            N6   1.361       .  A
C5         C1421   1.486       .  S
C7            N8   1.360       .  A
C7           N12   1.359       .  A
C7         C1408   1.481       .  S
N8            C9   1.359       .  A
C9           N10   1.356       .  A
C9         C1361   1.490       .  S
N10          C11   1.356       .  A
C11          N12   1.359       .  A
C11        C1388   1.483       .  S
C13          N14   1.356       .  A
C13          N18   1.357       .  A
C13        C1328   1.489       .  S
N14          C15   1.356       .  A
C15          N16   1.359       .  A
C15        C1301   1.491       .  S
N16          C17   1.360       .  A
C17          N18   1.359       .  A
C17        C1348   1.488       .  S
C19          N20   1.356       .  A
C19          N24   1.354       .  A
C19        C1281   1.484       .  S
N20          C21   1.359       .  A
C21          N22   1.363       .  A
C21        C1248   1.494       .  S
N22          C23   1.360       .  A
C23          N24   1.355       .  A
C23        C1268   1.474       .  S
C25          N26   1.359       .  A
C25          N30   1.357       .  A
C25        C1181   1.488       .  S
N26          C27   1.359       .  A
C27          N28   1.359       .  A
C27        C1201   1.489       .  S
N28          C29   1.358       .  A
C29          N30   1.356       .  A
C29        C1221   1.483       .  S
C31          N32   1.360       .  A
C31          N36   1.358       .  A
C31        C1168   1.485       .  S
N32          C33   1.359       .  A
C33          N34   1.357       .  A
C33        C1121   1.483       .  S
N34          C35   1.356       .  A
C35          N36   1.357       .  A
C35        C1148   1.486       .  S
O37         Cu45   2.018       .  S
O37          C47   1.279       .  A
O38         Cu45   2.025       .  S
O38          C48   1.280       .  A
O39         Cu45   2.013       .  S
O39          C49   1.278       .  A
O40         Cu45   2.012       .  S
O40          C50   1.278       .  A
O41         Cu46   1.980       .  S
O41          C50   1.275       .  A
O42         Cu46   1.980       .  S
O42          C49   1.274       .  A
O43         Cu46   1.987       .  S
O43          C48   1.276       .  A
O44         Cu46   1.996       .  S
O44          C47   1.277       .  A
Cu45        Cu46   2.372       .  S
C47        C1101   1.482       .  S
C48        C1041   1.483       .  S
C49        C1061   1.468       .  S
C50        C1081   1.471       .  S
C51          N52   1.358       .  A
C51          N56   1.364       .  A
C51        C1001   1.490       .  S
N52          C53   1.353       .  A
C53          N54   1.354       .  A
C53        C1048   1.475       .  S
N54          C55   1.358       .  A
C55          N56   1.362       .  A
C55        C1028   1.476       .  S
C57          N58   1.358       .  A
C57          N62   1.362       .  A
C57        C1381   1.487       .  S
N58          C59   1.353       .  A
C59          N60   1.354       .  A
C59        C1088   1.473       .  S
N60          C61   1.357       .  A
C61          N62   1.360       .  A
C61         C988   1.483       .  S
C63          N64   1.356       .  A
C63          N68   1.362       .  A
C63        C1141   1.487       .  S
N64          C65   1.352       .  A
C65          N66   1.352       .  A
C65        C1068   1.472       .  S
N66          C67   1.356       .  A
C67          N68   1.361       .  A
C67         C968   1.484       .  S
C69          N70   1.364       .  A
C69          N74   1.362       .  A
C69         C921   1.488       .  S
N70          C71   1.360       .  A
C71          N72   1.354       .  A
C71        C1108   1.482       .  S
N72          C73   1.353       .  A
C73          N74   1.357       .  A
C73         C948   1.487       .  S
O75         Cu83   2.015       .  S
O75          C85   1.279       .  A
O76         Cu83   2.012       .  S
O76          C86   1.278       .  A
O77         Cu83   2.029       .  S
O77          C87   1.280       .  A
O78         Cu83   2.022       .  S
O78          C88   1.280       .  A
O79         Cu84   1.988       .  S
O79          C88   1.275       .  A
O80         Cu84   1.981       .  S
O80          C87   1.275       .  A
O81         Cu84   1.996       .  S
O81          C86   1.277       .  A
O82         Cu84   1.997       .  S
O82          C85   1.277       .  A
Cu83        Cu84   2.371       .  S
C85         C881   1.486       .  S
C86         C868   1.473       .  S
C87         C841   1.481       .  S
C88         C901   1.474       .  S
C89          N90   1.363       .  A
C89          N94   1.360       .  A
C89        C1241   1.490       .  S
N90          C91   1.362       .  A
C91          N92   1.358       .  A
C91        C1021   1.489       .  S
N92          C93   1.355       .  A
C93          N94   1.355       .  A
C93         C848   1.482       .  S
C95          N96   1.361       .  A
C95         N100   1.362       .  A
C95        C1188   1.490       .  S
N96          C97   1.357       .  A
C97          N98   1.354       .  A
C97         C888   1.477       .  S
N98          C99   1.355       .  A
C99         N100   1.358       .  A
C99         C981   1.479       .  S
C101        N102   1.361       .  A
C101        N106   1.360       .  A
C101       C1308   1.482       .  S
N102        C103   1.357       .  A
C103        N104   1.355       .  A
C103        C861   1.486       .  S
N104        C105   1.355       .  A
C105        N106   1.356       .  A
C105        C961   1.471       .  S
C107        N108   1.360       .  A
C107        N112   1.359       .  A
C107       C1468   1.483       .  S
N108        C109   1.357       .  A
C109        N110   1.357       .  A
C109        C941   1.476       .  S
N110        C111   1.357       .  A
C111        N112   1.357       .  A
C111        C908   1.484       .  S
O113       Cu121   1.984       .  S
O113        C123   1.275       .  A
O114       Cu121   1.988       .  S
O114        C124   1.276       .  A
O115       Cu121   1.994       .  S
O115        C125   1.277       .  A
O116       Cu121   1.993       .  S
O116        C126   1.276       .  A
O117       Cu122   2.014       .  S
O117        C126   1.278       .  A
O118       Cu122   2.011       .  S
O118        C125   1.278       .  A
O119       Cu122   2.020       .  S
O119        C124   1.280       .  A
O120       Cu122   2.024       .  S
O120        C123   1.280       .  A
Cu121      Cu122   2.370       .  S
C123        C808   1.485       .  S
C124        C781   1.484       .  S
C125        C768   1.479       .  S
C126        C821   1.470       .  S
C127        N128   1.365       .  A
C127        N132   1.362       .  A
C127        C721   1.494       .  S
N128        C129   1.360       .  A
C129        N130   1.355       .  A
C129        C741   1.479       .  S
N130        C131   1.353       .  A
C131        N132   1.357       .  A
C131        C761   1.481       .  S
C133        N134   1.362       .  A
C133        N138   1.360       .  A
C133       C1161   1.480       .  S
N134        C135   1.359       .  A
C135        N136   1.355       .  A
C135        C701   1.473       .  S
N136        C137   1.355       .  A
C137        N138   1.356       .  A
C137        C801   1.475       .  S
C139        N140   1.360       .  A
C139        N144   1.360       .  A
C139       C1288   1.483       .  S
N140        C141   1.357       .  A
C141        N142   1.356       .  A
C141        C788   1.480       .  S
N142        C143   1.357       .  A
C143        N144   1.358       .  A
C143        C688   1.485       .  S
C145        N146   1.365       .  A
C145        N150   1.360       .  A
C145       C1341   1.490       .  S
N146        C147   1.362       .  A
C147        N148   1.355       .  A
C147        C668   1.484       .  S
N148        C149   1.352       .  A
C149        N150   1.354       .  A
C149        C828   1.486       .  S
O151       Cu159   2.017       .  S
O151        C161   1.278       .  A
O152       Cu159   2.015       .  S
O152        C162   1.278       .  A
O153       Cu159   2.031       .  S
O153        C163   1.280       .  A
O154       Cu159   2.023       .  S
O154        C164   1.280       .  A
O155       Cu160   2.005       .  S
O155        C164   1.278       .  A
O156       Cu160   1.993       .  S
O156        C163   1.276       .  A
O157       Cu160   1.986       .  S
O157        C162   1.276       .  A
O158       Cu160   1.993       .  S
O158        C161   1.276       .  A
Cu159      Cu160   2.373       .  S
C161        C621   1.474       .  S
C162        C608   1.468       .  S
C163        C581   1.480       .  S
C164        C641   1.488       .  S
C165        N166   1.363       .  A
C165        N170   1.363       .  A
C165       C1368   1.493       .  S
N166        C167   1.358       .  A
C167        N168   1.355       .  A
C167        C748   1.483       .  S
N168        C169   1.355       .  A
C169        N170   1.359       .  A
C169        C588   1.492       .  S
C171        N172   1.362       .  A
C171        N176   1.361       .  A
C171        C561   1.492       .  S
N172        C173   1.360       .  A
C173        N174   1.356       .  A
C173        C708   1.494       .  S
N174        C175   1.355       .  A
C175        N176   1.356       .  A
C175        C628   1.482       .  S
C177        N178   1.359       .  A
C177        N182   1.361       .  A
C177       C1208   1.475       .  S
N178        C179   1.355       .  A
C179        N180   1.354       .  A
C179        C601   1.475       .  S
N180        C181   1.356       .  A
C181        N182   1.359       .  A
C181        C681   1.477       .  S
C183        N184   1.363       .  A
C183        N188   1.358       .  A
C183       C1448   1.482       .  S
N184        C185   1.362       .  A
C185        N186   1.358       .  A
C185        C648   1.486       .  S
N186        C187   1.357       .  A
C187        N188   1.355       .  A
C187        C661   1.480       .  S
C189        N190   1.361       .  A
C189        N194   1.358       .  A
C189        C541   1.488       .  S
N190        C191   1.360       .  A
C191        N192   1.359       .  A
C191        C928   1.494       .  S
N192        C193   1.357       .  A
C193        N194   1.357       .  A
C193        C568   1.483       .  S
O195       Cu203   1.993       .  S
O195        C205   1.276       .  A
O196       Cu203   1.992       .  S
O196        C206   1.276       .  A
O197       Cu203   1.997       .  S
O197        C207   1.277       .  A
O198       Cu203   2.002       .  S
O198        C208   1.278       .  A
O199       Cu204   2.015       .  S
O199        C208   1.278       .  A
O200       Cu204   2.017       .  S
O200        C207   1.278       .  A
O201       Cu204   2.025       .  S
O201        C206   1.280       .  A
O202       Cu204   2.029       .  S
O202        C205   1.281       .  A
Cu203      Cu204   2.368       .  S
C205        C468   1.489       .  S
C206        C521   1.480       .  S
C207        C501   1.480       .  S
C208        C481   1.486       .  S
C209        N210   1.362       .  A
C209        N214   1.363       .  A
C209        C421   1.495       .  S
N210        C211   1.358       .  A
C211        N212   1.354       .  A
C211        C461   1.483       .  S
N212        C213   1.356       .  A
C213        N214   1.361       .  A
C213        C441   1.483       .  S
C215        N216   1.364       .  A
C215        N220   1.362       .  A
C215       C1401   1.489       .  S
N216        C217   1.360       .  A
C217        N218   1.355       .  A
C217        C408   1.474       .  S
N218        C219   1.353       .  A
C219        N220   1.356       .  A
C219        C508   1.482       .  S
C221        N222   1.361       .  A
C221        N226   1.362       .  A
C221       C1261   1.487       .  S
N222        C223   1.357       .  A
C223        N224   1.354       .  A
C223        C488   1.479       .  S
N224        C225   1.356       .  A
C225        N226   1.359       .  A
C225        C381   1.480       .  S
C227        N228   1.361       .  A
C227        N232   1.363       .  A
C227       C1228   1.492       .  S
N228        C229   1.356       .  A
C229        N230   1.353       .  A
C229        C528   1.482       .  S
N230        C231   1.355       .  A
C231        N232   1.359       .  A
C231        C361   1.484       .  S
O233       Cu241   1.990       .  S
O233        C243   1.276       .  A
O234       Cu241   1.993       .  S
O234        C244   1.277       .  A
O235       Cu241   1.990       .  S
O235        C245   1.276       .  A
O236       Cu241   1.989       .  S
O236        C246   1.276       .  A
O237       Cu242   2.027       .  S
O237        C246   1.280       .  A
O238       Cu242   2.025       .  S
O238        C245   1.280       .  A
O239       Cu242   2.024       .  S
O239        C244   1.279       .  A
O240       Cu242   2.021       .  S
O240        C243   1.279       .  A
Cu241      Cu242   2.370       .  S
C243        C301   1.482       .  S
C244        C321   1.482       .  S
C245        C341   1.479       .  S
C246        C281   1.477       .  S
C247        N248   1.360       .  A
C247        N252   1.362       .  A
C247       C1128   1.490       .  S
N248        C249   1.356       .  A
C249        N250   1.356       .  A
C249        C448   1.480       .  S
N250        C251   1.357       .  A
C251        N252   1.360       .  A
C251        C288   1.492       .  S
C253        N254   1.363       .  A
C253        N258   1.361       .  A
C253        C548   1.493       .  S
N254        C255   1.360       .  A
C255        N256   1.357       .  A
C255        C401   1.491       .  S
N256        C257   1.355       .  A
C257        N258   1.356       .  A
C257        C328   1.480       .  S
C259        N260   1.361       .  A
C259        N264   1.359       .  A
C259       C1321   1.486       .  S
N260        C261   1.358       .  A
C261        N262   1.356       .  A
C261        C308   1.480       .  S
N262        C263   1.356       .  A
C263        N264   1.355       .  A
C263        C388   1.482       .  S
C265        N266   1.361       .  A
C265        N270   1.363       .  A
C265       C1428   1.487       .  S
N266        C267   1.356       .  A
C267        N268   1.354       .  A
C267        C368   1.473       .  S
N268        C269   1.355       .  A
C269        N270   1.359       .  A
C269        C348   1.488       .  S
C271        N272   1.360       .  A
C271        N276   1.363       .  A
C271        C728   1.488       .  S
N272        C273   1.357       .  A
C273        N274   1.355       .  A
C273       C1008   1.485       .  S
N274        C275   1.357       .  A
C275        N276   1.362       .  A
C275        C428   1.491       .  S
C277        C278   1.407       .  A
C277        C282   1.403       .  A
C277        F295   1.358       .  S
C278        C283   1.482       .  S
C278        C279   1.404       .  A
C279        C280   1.395       .  A
C279        F284   1.358       .  S
C280        C281   1.407       .  A
C280        F296   1.358       .  S
C281        C282   1.407       .  A
C282        F285   1.358       .  S
C283        C286   1.403       .  A
C283        C290   1.404       .  A
C286        C287   1.395       .  A
C286        F291   1.358       .  S
C287        C288   1.413       .  A
C287        F293   1.358       .  S
C288        C289   1.414       .  A
C289        C290   1.403       .  A
C289        F292   1.357       .  S
C290        F294   1.358       .  S
C297        C298   1.402       .  A
C297        C302   1.393       .  A
C297        F315   1.358       .  S
C298        C303   1.477       .  S
C298        C299   1.404       .  A
C299        C300   1.402       .  A
C299        F304   1.358       .  S
C300        C301   1.411       .  A
C300        F316   1.358       .  S
C301        C302   1.409       .  A
C302        F305   1.358       .  S
C303        C306   1.404       .  A
C303        C310   1.403       .  A
C306        C307   1.403       .  A
C306        F311   1.358       .  S
C307        C308   1.410       .  A
C307        F313   1.357       .  S
C308        C309   1.407       .  A
C309        C310   1.393       .  A
C309        F312   1.358       .  S
C310        F314   1.358       .  S
C317        C318   1.403       .  A
C317        C322   1.394       .  A
C317        F335   1.358       .  S
C318        C323   1.480       .  S
C318        C319   1.405       .  A
C319        C320   1.404       .  A
C319        F324   1.358       .  S
C320        C321   1.410       .  A
C320        F336   1.358       .  S
C321        C322   1.408       .  A
C322        F325   1.358       .  S
C323        C326   1.405       .  A
C323        C330   1.404       .  A
C326        C327   1.403       .  A
C326        F331   1.358       .  S
C327        C328   1.409       .  A
C327        F333   1.358       .  S
C328        C329   1.407       .  A
C329        C330   1.395       .  A
C329        F332   1.358       .  S
C330        F334   1.358       .  S
C337        C338   1.404       .  A
C337        C342   1.402       .  A
C337        F355   1.358       .  S
C338        C343   1.478       .  S
C338        C339   1.403       .  A
C339        C340   1.395       .  A
C339        F344   1.358       .  S
C340        C341   1.408       .  A
C340        F356   1.358       .  S
C341        C342   1.409       .  A
C342        F345   1.358       .  S
C343        C346   1.402       .  A
C343        C350   1.403       .  A
C346        C347   1.395       .  A
C346        F351   1.358       .  S
C347        C348   1.412       .  A
C347        F353   1.358       .  S
C348        C349   1.412       .  A
C349        C350   1.402       .  A
C349        F352   1.357       .  S
C350        F354   1.358       .  S
C357        C358   1.400       .  A
C357        C362   1.391   1_655  A
C357        F375   1.359       .  S
C358        C363   1.473       .  S
C358        C359   1.402       .  A
C359        C360   1.403   1_655  A
C359        F364   1.357       .  S
C360        C361   1.412       .  A
C360        F376   1.357       .  S
C361        C362   1.411       .  A
C362        F365   1.358       .  S
C363        C366   1.403       .  A
C363        C370   1.404       .  A
C366        C367   1.394       .  A
C366        F371   1.358       .  S
C367        C368   1.406       .  A
C367        F373   1.358       .  S
C368        C369   1.407       .  A
C369        C370   1.401       .  A
C369        F372   1.358       .  S
C370        F374   1.358       .  S
C377        C378   1.404       .  A
C377        C382   1.401   1_655  A
C377        F395   1.358       .  S
C378        C383   1.475       .  S
C378        C379   1.402       .  A
C379        C380   1.393   1_655  A
C379        F384   1.358       .  S
C380        C381   1.408       .  A
C380        F396   1.358       .  S
C381        C382   1.410       .  A
C382        F385   1.358       .  S
C383        C386   1.403       .  A
C383        C390   1.402       .  A
C386        C387   1.394       .  A
C386        F391   1.358       .  S
C387        C388   1.409       .  A
C387        F393   1.358       .  S
C388        C389   1.412       .  A
C389        C390   1.400       .  A
C389        F392   1.357       .  S
C390        F394   1.358       .  S
C397        C398   1.403       .  A
C397        C402   1.404       .  A
C397        F415   1.357       .  S
C398        C403   1.481       .  S
C398        C399   1.403       .  A
C399        C400   1.394       .  A
C399        F404   1.359       .  S
C400        C401   1.411       .  A
C400        F416   1.358       .  S
C401        C402   1.414       .  A
C402        F405   1.357       .  S
C403        C406   1.407       .  A
C403        C410   1.404       .  A
C406        C407   1.404   1_655  A
C406        F411   1.357       .  S
C407        C408   1.406       .  A
C407        F413   1.357       .  S
C408        C409   1.405       .  A
C409        C410   1.394   1_455  A
C409        F412   1.358       .  S
C410        F414   1.358       .  S
C417        C418   1.400       .  A
C417        C422   1.398       .  A
C417        F435   1.358       .  S
C418        C423   1.476       .  S
C418        C419   1.401       .  A
C419        C420   1.402       .  A
C419        F424   1.358       .  S
C420        C421   1.415       .  A
C420        F436   1.357       .  S
C421        C422   1.414       .  A
C422        F425   1.357       .  S
C423        C426   1.403       .  A
C423        C430   1.399       .  A
C426        C427   1.404       .  A
C426        F431   1.358       .  S
C427        C428   1.413       .  A
C427        F433   1.357       .  S
C428        C429   1.414       .  A
C429        C430   1.396       .  A
C429        F432   1.358       .  S
C430        F434   1.358       .  S
C437        C438   1.401       .  A
C437        C442   1.395   1_655  A
C437        F455   1.358       .  S
C438        C443   1.475       .  S
C438        C439   1.403       .  A
C439        C440   1.402   1_655  A
C439        F444   1.358       .  S
C440        C441   1.410       .  A
C440        F456   1.357       .  S
C441        C442   1.410       .  A
C442        F445   1.358       .  S
C443        C446   1.403       .  A
C443        C450   1.403       .  A
C446        C447   1.403       .  A
C446        F451   1.357       .  S
C447        C448   1.411       .  A
C447        F453   1.358       .  S
C448        C449   1.407       .  A
C449        C450   1.394       .  A
C449        F452   1.358       .  S
C450        F454   1.358       .  S
C457        C458   1.404       .  A
C457        C462   1.402       .  A
C457        F475   1.358       .  S
C458        C463   1.479       .  S
C458        C459   1.403       .  A
C459        C460   1.398       .  A
C459        F464   1.358       .  S
C460        C461   1.409       .  A
C460        F476   1.358       .  S
C461        C462   1.409       .  A
C462        F465   1.357       .  S
C463        C466   1.404       .  A
C463        C470   1.402       .  A
C466        C467   1.403       .  A
C466        F471   1.358       .  S
C467        C468   1.412       .  A
C467        F473   1.357       .  S
C468        C469   1.412       .  A
C469        C470   1.396       .  A
C469        F472   1.358       .  S
C470        F474   1.358       .  S
C477        C478   1.402       .  A
C477        C482   1.401       .  A
C477        F495   1.358       .  S
C478        C483   1.477       .  S
C478        C479   1.402       .  A
C479        C480   1.396       .  A
C479        F484   1.358       .  S
C480        C481   1.411       .  A
C480        F496   1.358       .  S
C481        C482   1.412       .  A
C482        F485   1.358       .  S
C483        C486   1.404       .  A
C483        C490   1.403       .  A
C486        C487   1.400       .  A
C486        F491   1.358       .  S
C487        C488   1.409       .  A
C487        F493   1.357       .  S
C488        C489   1.408       .  A
C489        C490   1.396       .  A
C489        F492   1.358       .  S
C490        F494   1.358       .  S
C497        C498   1.406       .  A
C497        C502   1.402       .  A
C497        F515   1.358       .  S
C498        C503   1.481       .  S
C498        C499   1.404       .  A
C499        C500   1.394       .  A
C499        F504   1.358       .  S
C500        C501   1.407       .  A
C500        F516   1.358       .  S
C501        C502   1.409       .  A
C502        F505   1.358       .  S
C503        C506   1.405       .  A
C503        C510   1.404       .  A
C506        C507   1.401       .  A
C506        F511   1.358       .  S
C507        C508   1.409       .  A
C507        F513   1.358       .  S
C508        C509   1.409       .  A
C509        C510   1.395       .  A
C509        F512   1.358       .  S
C510        F514   1.358       .  S
C517        C518   1.403       .  A
C517        C522   1.395       .  A
C517        F535   1.358       .  S
C518        C523   1.478       .  S
C518        C519   1.405       .  A
C519        C520   1.402       .  A
C519        F524   1.358       .  S
C520        C521   1.408       .  A
C520        F536   1.357       .  S
C521        C522   1.409       .  A
C522        F525   1.358       .  S
C523        C526   1.403       .  A
C523        C530   1.404       .  A
C526        C527   1.395       .  A
C526        F531   1.358       .  S
C527        C528   1.410       .  A
C527        F533   1.358       .  S
C528        C529   1.410       .  A
C529        C530   1.401       .  A
C529        F532   1.358       .  S
C530        F534   1.358       .  S
C537        C538   1.403       .  A
C537        C542   1.397       .  A
C537        F555   1.358       .  S
C538        C543   1.480       .  S
C538        C539   1.404       .  A
C539        C540   1.399       .  A
C539        F544   1.358       .  S
C540        C541   1.411       .  A
C540        F556   1.357       .  S
C541        C542   1.413       .  A
C542        F545   1.358       .  S
C543        C546   1.402       .  A
C543        C550   1.402       .  A
C546        C547   1.396       .  A
C546        F551   1.358       .  S
C547        C548   1.414       .  A
C547        F553   1.358       .  S
C548        C549   1.414       .  A
C549        C550   1.400       .  A
C549        F552   1.357       .  S
C550        F554   1.358       .  S
C557        C558   1.400       .  A
C557        C562   1.397       .  A
C557        F575   1.358       .  S
C558        C563   1.474       .  S
C558        C559   1.400       .  A
C559        C560   1.400       .  A
C559        F564   1.358       .  S
C560        C561   1.415       .  A
C560        F576   1.357       .  S
C561        C562   1.414       .  A
C562        F565   1.358       .  S
C563        C566   1.401       .  A
C563        C570   1.402       .  A
C566        C567   1.397       .  A
C566        F571   1.358       .  S
C567        C568   1.411       .  A
C567        F573   1.358       .  S
C568        C569   1.411       .  A
C569        C570   1.399       .  A
C569        F572   1.358       .  S
C570        F574   1.358       .  S
C577        C578   1.404       .  A
C577        C582   1.395       .  A
C577        F595   1.358       .  S
C578        C583   1.482       .  S
C578        C579   1.406       .  A
C579        C580   1.405       .  A
C579        F584   1.357       .  S
C580        C581   1.408       .  A
C580        F596   1.357       .  S
C581        C582   1.407       .  A
C582        F585   1.358       .  S
C583        C586   1.403       .  A
C583        C590   1.404       .  A
C586        C587   1.395       .  A
C586        F591   1.358       .  S
C587        C588   1.412       .  A
C587        F593   1.358       .  S
C588        C589   1.414       .  A
C589        C590   1.404       .  A
C589        F592   1.356       .  S
C590        F594   1.358       .  S
C597        C598   1.402       .  A
C597        C602   1.393       .  A
C597        F615   1.358       .  S
C598        C603   1.470       .  S
C598        C599   1.402       .  A
C599        C600   1.400       .  A
C599        F604   1.358       .  S
C600        C601   1.409       .  A
C600        F616   1.358       .  S
C601        C602   1.407       .  A
C602        F605   1.358       .  S
C603        C606   1.404       .  A
C603        C610   1.402       .  A
C606        C607   1.401       .  A
C606        F611   1.358       .  S
C607        C608   1.406       .  A
C607        F613   1.358       .  S
C608        C609   1.405       .  A
C609        C610   1.393       .  A
C609        F612   1.358       .  S
C610        F614   1.358       .  S
C617        C618   1.403       .  A
C617        C622   1.394       .  A
C617        F635   1.358       .  S
C618        C623   1.476       .  S
C618        C619   1.405       .  A
C619        C620   1.402       .  A
C619        F624   1.358       .  S
C620        C621   1.407       .  A
C620        F636   1.358       .  S
C621        C622   1.406       .  A
C622        F625   1.358       .  S
C623        C626   1.402       .  A
C623        C630   1.404       .  A
C626        C627   1.395       .  A
C626        F631   1.358       .  S
C627        C628   1.409       .  A
C627        F633   1.358       .  S
C628        C629   1.410       .  A
C629        C630   1.401       .  A
C629        F632   1.358       .  S
C630        F634   1.358       .  S
C637        C638   1.406       .  A
C637        C642   1.404       .  A
C637        F655   1.358       .  S
C638        C643   1.488       .  S
C638        C639   1.406       .  A
C639        C640   1.398       .  A
C639        F644   1.358       .  S
C640        C641   1.409       .  A
C640        F656   1.358       .  S
C641        C642   1.411       .  A
C642        F645   1.358       .  S
C643        C646   1.407       .  A
C643        C650   1.406       .  A
C646        C647   1.404       .  A
C646        F651   1.358       .  S
C647        C648   1.410       .  A
C647        F653   1.357       .  S
C648        C649   1.409       .  A
C649        C650   1.398       .  A
C649        F652   1.358       .  S
C650        F654   1.358       .  S
C657        C658   1.404       .  A
C657        C662   1.396       .  A
C657        F675   1.358       .  S
C658        C663   1.476       .  S
C658        C659   1.402       .  A
C659        C660   1.400       .  A
C659        F664   1.358       .  S
C660        C661   1.411       .  A
C660        F676   1.357       .  S
C661        C662   1.407       .  A
C662        F665   1.358       .  S
C663        C666   1.405       .  A
C663        C670   1.400       .  A
C666        C667   1.405   1_565  A
C666        F671   1.357       .  S
C667        C668   1.410       .  A
C667        F673   1.357       .  S
C668        C669   1.411       .  A
C669        C670   1.392   1_545  A
C669        F672   1.358       .  S
C670        F674   1.359       .  S
C677        C678   1.402       .  A
C677        C682   1.393       .  A
C677        F695   1.358       .  S
C678        C683   1.474       .  S
C678        C679   1.403       .  A
C679        C680   1.402       .  A
C679        F684   1.357       .  S
C680        C681   1.409       .  A
C680        F696   1.357       .  S
C681        C682   1.408       .  A
C682        F685   1.358       .  S
C683        C686   1.402       .  A
C683        C690   1.402       .  A
C686        C687   1.401   1_565  A
C686        F691   1.358       .  S
C687        C688   1.413       .  A
C687        F693   1.357       .  S
C688        C689   1.410       .  A
C689        C690   1.393   1_545  A
C689        F692   1.358       .  S
C690        F694   1.358       .  S
C697        C698   1.405   1_545  A
C697        C702   1.395       .  A
C697        F715   1.358   1_545  S
C698        C703   1.480       .  S
C698        C699   1.406   1_565  A
C699        C700   1.402       .  A
C699        F704   1.358   1_545  S
C700        C701   1.406       .  A
C700        F716   1.358       .  S
C701        C702   1.405       .  A
C702        F705   1.358       .  S
C703        C706   1.402       .  A
C703        C710   1.402       .  A
C706        C707   1.402       .  A
C706        F711   1.358       .  S
C707        C708   1.414       .  A
C707        F713   1.356       .  S
C708        C709   1.415       .  A
C709        C710   1.394       .  A
C709        F712   1.358       .  S
C710        F714   1.359       .  S
C717        C718   1.404       .  A
C717        C722   1.398       .  A
C717        F735   1.358       .  S
C718        C723   1.486       .  S
C718        C719   1.405       .  A
C719        C720   1.401       .  A
C719        F724   1.358       .  S
C720        C721   1.413       .  A
C720        F736   1.357       .  S
C721        C722   1.415       .  A
C722        F725   1.358       .  S
C723        C726   1.405       .  A
C723        C730   1.406       .  A
C726        C727   1.397       .  A
C726        F731   1.358       .  S
C727        C728   1.410       .  A
C727        F733   1.357       .  S
C728        C729   1.410       .  A
C729        C730   1.402       .  A
C729        F732   1.357       .  S
C730        F734   1.358       .  S
C737        C738   1.405       .  A
C737        C742   1.404   1_565  A
C737        F755   1.357       .  S
C738        C743   1.476       .  S
C738        C739   1.402       .  A
C739        C740   1.395   1_565  A
C739        F744   1.358       .  S
C740        C741   1.408       .  A
C740        F756   1.358       .  S
C741        C742   1.408       .  A
C742        F745   1.357       .  S
C743        C746   1.404       .  A
C743        C750   1.402       .  A
C746        C747   1.405       .  A
C746        F751   1.357       .  S
C747        C748   1.411       .  A
C747        F753   1.357       .  S
C748        C749   1.409       .  A
C749        C750   1.394       .  A
C749        F752   1.358       .  S
C750        F754   1.358       .  S
C757        C758   1.404       .  A
C757        C762   1.401       .  A
C757        F775   1.358       .  S
C758        C763   1.477       .  S
C758        C759   1.403       .  A
C759        C760   1.394       .  A
C759        F764   1.358       .  S
C760        C761   1.409       .  A
C760        F776   1.358       .  S
C761        C762   1.410       .  A
C762        F765   1.358       .  S
C763        C766   1.403       .  A
C763        C770   1.404       .  A
C766        C767   1.395       .  A
C766        F771   1.358       .  S
C767        C768   1.408       .  A
C767        F773   1.358       .  S
C768        C769   1.410       .  A
C769        C770   1.400       .  A
C769        F772   1.358       .  S
C770        F774   1.358       .  S
C777        C778   1.403       .  A
C777        C782   1.393       .  A
C777        F795   1.358       .  S
C778        C783   1.480       .  S
C778        C779   1.406       .  A
C779        C780   1.402       .  A
C779        F784   1.358       .  S
C780        C781   1.410       .  A
C780        F796   1.358       .  S
C781        C782   1.411       .  A
C782        F785   1.358       .  S
C783        C786   1.405       .  A
C783        C790   1.405       .  A
C786        C787   1.396       .  A
C786        F791   1.358       .  S
C787        C788   1.408       .  A
C787        F793   1.358       .  S
C788        C789   1.409       .  A
C789        C790   1.400       .  A
C789        F792   1.357       .  S
C790        F794   1.358       .  S
C797        C798   1.405       .  A
C797        C802   1.395       .  A
C797        F815   1.358       .  S
C798        C803   1.479       .  S
C798        C799   1.405       .  A
C799        C800   1.400       .  A
C799        F804   1.358       .  S
C800        C801   1.408       .  A
C800        F816   1.358       .  S
C801        C802   1.406       .  A
C802        F805   1.358       .  S
C803        C806   1.403       .  A
C803        C810   1.404       .  A
C806        C807   1.392       .  A
C806        F811   1.359       .  S
C807        C808   1.411       .  A
C807        F813   1.358       .  S
C808        C809   1.412       .  A
C809        C810   1.402       .  A
C809        F812   1.357       .  S
C810        F814   1.358       .  S
C817        C818   1.403       .  A
C817        C822   1.400       .  A
C817        F835   1.358       .  S
C818        C823   1.472       .  S
C818        C819   1.403       .  A
C819        C820   1.394       .  A
C819        F824   1.358       .  S
C820        C821   1.405       .  A
C820        F836   1.358       .  S
C821        C822   1.407       .  A
C822        F825   1.358       .  S
C823        C826   1.400       .  A
C823        C830   1.401       .  A
C826        C827   1.393       .  A
C826        F831   1.358       .  S
C827        C828   1.412       .  A
C827        F833   1.358       .  S
C828        C829   1.413       .  A
C829        C830   1.400       .  A
C829        F832   1.357       .  S
C830        F834   1.358       .  S
C837        C838   1.402       .  A
C837        C842   1.393       .  A
C837        F855   1.358       .  S
C838        C843   1.477       .  S
C838        C839   1.405       .  A
C839        C840   1.403       .  A
C839        F844   1.358       .  S
C840        C841   1.409       .  A
C840        F856   1.358       .  S
C841        C842   1.409       .  A
C842        F845   1.358       .  S
C843        C846   1.404       .  A
C843        C850   1.402       .  A
C846        C847   1.396       .  A
C846        F851   1.358       .  S
C847        C848   1.408       .  A
C847        F853   1.358       .  S
C848        C849   1.411       .  A
C849        C850   1.401       .  A
C849        F852   1.357       .  S
C850        F854   1.358       .  S
C857        C858   1.401       .  A
C857        C862   1.401       .  A
C857        F875   1.358       .  S
C858        C863   1.473       .  S
C858        C859   1.401       .  A
C859        C860   1.394       .  A
C859        F864   1.358       .  S
C860        C861   1.411       .  A
C860        F876   1.358       .  S
C861        C862   1.413       .  A
C862        F865   1.358       .  S
C863        C866   1.403       .  A
C863        C870   1.403       .  A
C866        C867   1.394       .  A
C866        F871   1.358       .  S
C867        C868   1.405       .  A
C867        F873   1.358       .  S
C868        C869   1.409       .  A
C869        C870   1.401       .  A
C869        F872   1.358       .  S
C870        F874   1.358       .  S
C877        C878   1.403       .  A
C877        C882   1.395       .  A
C877        F895   1.358       .  S
C878        C883   1.478       .  S
C878        C879   1.403       .  A
C879        C880   1.400       .  A
C879        F884   1.358       .  S
C880        C881   1.412       .  A
C880        F896   1.358       .  S
C881        C882   1.411       .  A
C882        F885   1.358       .  S
C883        C886   1.404       .  A
C883        C890   1.405       .  A
C886        C887   1.394       .  A
C886        F891   1.358       .  S
C887        C888   1.407       .  A
C887        F893   1.358       .  S
C888        C889   1.408       .  A
C889        C890   1.401       .  A
C889        F892   1.358       .  S
C890        F894   1.358       .  S
C897        C898   1.406       .  A
C897        C902   1.400       .  A
C897        F915   1.358       .  S
C898        C903   1.479       .  S
C898        C899   1.404       .  A
C899        C900   1.396       .  A
C899        F904   1.358       .  S
C900        C901   1.407       .  A
C900        F916   1.358       .  S
C901        C902   1.406       .  A
C902        F905   1.358       .  S
C903        C906   1.403       .  A
C903        C910   1.404       .  A
C906        C907   1.399       .  A
C906        F911   1.358       .  S
C907        C908   1.411       .  A
C907        F913   1.358       .  S
C908        C909   1.410       .  A
C909        C910   1.397       .  A
C909        F912   1.358       .  S
C910        F914   1.358       .  S
C917        C918   1.404       .  A
C917        C922   1.400       .  A
C917        F935   1.358       .  S
C918        C923   1.481       .  S
C918        C919   1.403       .  A
C919        C920   1.399       .  A
C919        F924   1.358       .  S
C920        C921   1.412       .  A
C920        F936   1.358       .  S
C921        C922   1.411       .  A
C922        F925   1.357       .  S
C923        C926   1.403       .  A
C923        C930   1.402       .  A
C926        C927   1.401       .  A
C926        F931   1.358       .  S
C927        C928   1.414       .  A
C927        F933   1.357       .  S
C928        C929   1.414       .  A
C929        C930   1.397       .  A
C929        F932   1.358       .  S
C930        F934   1.358       .  S
C937        C938   1.403       .  A
C937        C942   1.400       .  A
C937        F955   1.358       .  S
C938        C943   1.475       .  S
C938        C939   1.404       .  A
C939        C940   1.396       .  A
C939        F944   1.358       .  S
C940        C941   1.406       .  A
C940        F956   1.358       .  S
C941        C942   1.409       .  A
C942        F945   1.357       .  S
C943        C946   1.401   1_556  A
C943        C950   1.402   1_556  A
C946        C947   1.394       .  A
C946        F951   1.359   1_554  S
C947        C948   1.412       .  A
C947        F953   1.358       .  S
C948        C949   1.413       .  A
C949        C950   1.401       .  A
C949        F952   1.357       .  S
C950        F954   1.357   1_554  S
C957        C958   1.403       .  A
C957        C962   1.400       .  A
C957        F975   1.358       .  S
C958        C963   1.471       .  S
C958        C959   1.402       .  A
C959        C960   1.394       .  A
C959        F964   1.358       .  S
C960        C961   1.406       .  A
C960        F976   1.358       .  S
C961        C962   1.407       .  A
C962        F965   1.358       .  S
C963        C966   1.401       .  A
C963        C970   1.400       .  A
C966        C967   1.401   1_556  A
C966        F971   1.357       .  S
C967        C968   1.412       .  A
C967        F973   1.357       .  S
C968        C969   1.412       .  A
C969        C970   1.392   1_554  A
C969        F972   1.358       .  S
C970        F974   1.359       .  S
C977        C978   1.403       .  A
C977        C982   1.393       .  A
C977        F995   1.358       .  S
C978        C983   1.477       .  S
C978        C979   1.404       .  A
C979        C980   1.402       .  A
C979        F984   1.358       .  S
C980        C981   1.409       .  A
C980        F996   1.357       .  S
C981        C982   1.408       .  A
C982        F985   1.358       .  S
C983        C986   1.402       .  A
C983        C990   1.403       .  A
C986        C987   1.394   1_556  A
C986        F991   1.358       .  S
C987        C988   1.409       .  A
C987        F993   1.358       .  S
C988        C989   1.411       .  A
C989        C990   1.402   1_554  A
C989        F992   1.357       .  S
C990        F994   1.358       .  S
C997        C998   1.400       .  A
C997       C1002   1.395       .  A
C997       F1015   1.358       .  S
C998       C1003   1.476       .  S
C998        C999   1.403       .  A
C999       C1000   1.401       .  A
C999       F1004   1.358       .  S
C1000      C1001   1.412       .  A
C1000      F1016   1.357       .  S
C1001      C1002   1.415       .  A
C1002      F1005   1.358       .  S
C1003      C1006   1.401       .  A
C1003      C1010   1.403       .  A
C1006      C1007   1.398       .  A
C1006      F1011   1.358       .  S
C1007      C1008   1.411       .  A
C1007      F1013   1.358       .  S
C1008      C1009   1.411       .  A
C1009      C1010   1.399       .  A
C1009      F1012   1.357       .  S
C1010      F1014   1.358       .  S
C1017      C1018   1.401       .  A
C1017      C1022   1.395       .  A
C1017      F1035   1.358       .  S
C1018      C1023   1.477       .  S
C1018      C1019   1.403       .  A
C1019      C1020   1.405       .  A
C1019      F1024   1.357       .  S
C1020      C1021   1.413       .  A
C1020      F1036   1.357       .  S
C1021      C1022   1.412       .  A
C1022      F1025   1.358       .  S
C1023      C1026   1.403       .  A
C1023      C1030   1.405       .  A
C1026      C1027   1.396   1_556  A
C1026      F1031   1.358       .  S
C1027      C1028   1.406       .  A
C1027      F1033   1.358       .  S
C1028      C1029   1.407       .  A
C1029      C1030   1.404   1_554  A
C1029      F1032   1.358       .  S
C1030      F1034   1.357       .  S
C1037      C1038   1.402       .  A
C1037      C1042   1.394       .  A
C1037      F1055   1.358       .  S
C1038      C1043   1.478       .  S
C1038      C1039   1.405       .  A
C1039      C1040   1.401       .  A
C1039      F1044   1.358       .  S
C1040      C1041   1.410       .  A
C1040      F1056   1.358       .  S
C1041      C1042   1.411       .  A
C1042      F1045   1.358       .  S
C1043      C1046   1.405       .  A
C1043      C1050   1.404       .  A
C1046      C1047   1.396       .  A
C1046      F1051   1.358       .  S
C1047      C1048   1.406       .  A
C1047      F1053   1.358       .  S
C1048      C1049   1.408       .  A
C1049      C1050   1.399       .  A
C1049      F1052   1.358       .  S
C1050      F1054   1.358       .  S
C1057      C1058   1.401       .  A
C1057      C1062   1.393       .  A
C1057      F1075   1.358       .  S
C1058      C1063   1.467       .  S
C1058      C1059   1.403       .  A
C1059      C1060   1.398       .  A
C1059      F1064   1.358       .  S
C1060      C1061   1.406       .  A
C1060      F1076   1.358       .  S
C1061      C1062   1.406       .  A
C1062      F1065   1.358       .  S
C1063      C1066   1.402       .  A
C1063      C1070   1.400       .  A
C1066      C1067   1.394       .  A
C1066      F1071   1.358       .  S
C1067      C1068   1.407       .  A
C1067      F1073   1.358       .  S
C1068      C1069   1.409       .  A
C1069      C1070   1.396       .  A
C1069      F1072   1.358       .  S
C1070      F1074   1.358       .  S
C1077      C1078   1.402       .  A
C1077      C1082   1.391       .  A
C1077      F1095   1.358       .  S
C1078      C1083   1.471       .  S
C1078      C1079   1.403       .  A
C1079      C1080   1.400       .  A
C1079      F1084   1.358       .  S
C1080      C1081   1.408       .  A
C1080      F1096   1.358       .  S
C1081      C1082   1.406       .  A
C1082      F1085   1.358       .  S
C1083      C1086   1.401       .  A
C1083      C1090   1.404       .  A
C1086      C1087   1.398       .  A
C1086      F1091   1.358       .  S
C1087      C1088   1.410       .  A
C1087      F1093   1.357       .  S
C1088      C1089   1.405       .  A
C1089      C1090   1.394       .  A
C1089      F1092   1.358       .  S
C1090      F1094   1.358       .  S
C1097      C1098   1.404       .  A
C1097      C1102   1.403       .  A
C1097      F1115   1.357       .  S
C1098      C1103   1.480       .  S
C1098      C1099   1.405       .  A
C1099      C1100   1.394       .  A
C1099      F1104   1.358       .  S
C1100      C1101   1.408       .  A
C1100      F1116   1.358       .  S
C1101      C1102   1.410       .  A
C1102      F1105   1.358       .  S
C1103      C1106   1.406       .  A
C1103      C1110   1.403       .  A
C1106      C1107   1.404       .  A
C1106      F1111   1.357       .  S
C1107      C1108   1.409       .  A
C1107      F1113   1.357       .  S
C1108      C1109   1.408       .  A
C1109      C1110   1.393       .  A
C1109      F1112   1.358       .  S
C1110      F1114   1.359       .  S
C1117      C1118   1.402       .  A
C1117      C1122   1.396       .  A
C1117      F1135   1.358       .  S
C1118      C1123   1.476       .  S
C1118      C1119   1.403       .  A
C1119      C1120   1.399       .  A
C1119      F1124   1.358       .  S
C1120      C1121   1.410       .  A
C1120      F1136   1.357       .  S
C1121      C1122   1.411       .  A
C1122      F1125   1.357       .  S
C1123      C1126   1.402       .  A
C1123      C1130   1.401       .  A
C1126      C1127   1.399       .  A
C1126      F1131   1.358       .  S
C1127      C1128   1.413       .  A
C1127      F1133   1.357       .  S
C1128      C1129   1.414       .  A
C1129      C1130   1.396       .  A
C1129      F1132   1.358       .  S
C1130      F1134   1.358       .  S
C1137      C1138   1.398       .  A
C1137      C1142   1.393       .  A
C1137      F1155   1.358       .  S
C1138      C1143   1.469       .  S
C1138      C1139   1.400       .  A
C1139      C1140   1.399       .  A
C1139      F1144   1.358       .  S
C1140      C1141   1.413       .  A
C1140      F1156   1.357       .  S
C1141      C1142   1.415       .  A
C1142      F1145   1.358       .  S
C1143      C1146   1.400       .  A
C1143      C1150   1.399       .  A
C1146      C1147   1.396       .  A
C1146      F1151   1.358       .  S
C1147      C1148   1.413       .  A
C1147      F1153   1.358       .  S
C1148      C1149   1.414       .  A
C1149      C1150   1.397       .  A
C1149      F1152   1.357       .  S
C1150      F1154   1.358       .  S
C1157      C1158   1.402       .  A
C1157      C1162   1.400       .  A
C1157      F1175   1.358       .  S
C1158      C1163   1.471       .  S
C1158      C1159   1.400       .  A
C1159      C1160   1.396       .  A
C1159      F1164   1.358       .  S
C1160      C1161   1.410       .  A
C1160      F1176   1.358       .  S
C1161      C1162   1.410       .  A
C1162      F1165   1.358       .  S
C1163      C1166   1.400       .  A
C1163      C1170   1.400       .  A
C1166      C1167   1.398       .  A
C1166      F1171   1.358       .  S
C1167      C1168   1.412       .  A
C1167      F1173   1.358       .  S
C1168      C1169   1.411       .  A
C1169      C1170   1.397       .  A
C1169      F1172   1.357       .  S
C1170      F1174   1.358       .  S
C1177      C1178   1.402       .  A
C1177      C1182   1.397       .  A
C1177      F1195   1.358       .  S
C1178      C1183   1.479       .  S
C1178      C1179   1.403       .  A
C1179      C1180   1.397       .  A
C1179      F1184   1.358       .  S
C1180      C1181   1.412       .  A
C1180      F1196   1.357       .  S
C1181      C1182   1.413       .  A
C1182      F1185   1.358       .  S
C1183      C1186   1.403       .  A
C1183      C1190   1.403       .  A
C1186      C1187   1.397       .  A
C1186      F1191   1.358       .  S
C1187      C1188   1.413       .  A
C1187      F1193   1.358       .  S
C1188      C1189   1.413       .  A
C1189      C1190   1.398       .  A
C1189      F1192   1.357       .  S
C1190      F1194   1.358       .  S
C1197      C1198   1.402       .  A
C1197      C1202   1.398       .  A
C1197      F1215   1.358       .  S
C1198      C1203   1.476       .  S
C1198      C1199   1.402       .  A
C1199      C1200   1.396       .  A
C1199      F1204   1.358       .  S
C1200      C1201   1.413       .  A
C1200      F1216   1.357       .  S
C1201      C1202   1.413       .  A
C1202      F1205   1.357       .  S
C1203      C1206   1.403       .  A
C1203      C1210   1.405       .  A
C1206      C1207   1.396       .  A
C1206      F1211   1.358       .  S
C1207      C1208   1.408       .  A
C1207      F1213   1.358       .  S
C1208      C1209   1.407       .  A
C1209      C1210   1.398       .  A
C1209      F1212   1.358       .  S
C1210      F1214   1.358       .  S
C1217      C1218   1.402       .  A
C1217      C1222   1.398       .  A
C1217      F1235   1.358       .  S
C1218      C1223   1.476       .  S
C1218      C1219   1.403       .  A
C1219      C1220   1.397       .  A
C1219      F1224   1.358       .  S
C1220      C1221   1.410       .  A
C1220      F1236   1.357       .  S
C1221      C1222   1.411       .  A
C1222      F1225   1.358       .  S
C1223      C1226   1.402       .  A
C1223      C1230   1.401       .  A
C1226      C1227   1.400       .  A
C1226      F1231   1.358       .  S
C1227      C1228   1.415       .  A
C1227      F1233   1.357       .  S
C1228      C1229   1.414       .  A
C1229      C1230   1.395       .  A
C1229      F1232   1.357       .  S
C1230      F1234   1.358       .  S
C1237      C1238   1.401       .  A
C1237      C1242   1.401       .  A
C1237      F1255   1.358       .  S
C1238      C1243   1.474       .  S
C1238      C1239   1.400       .  A
C1239      C1240   1.396       .  A
C1239      F1244   1.358       .  S
C1240      C1241   1.414       .  A
C1240      F1256   1.357       .  S
C1241      C1242   1.413       .  A
C1242      F1245   1.357       .  S
C1243      C1246   1.401       .  A
C1243      C1250   1.399       .  A
C1246      C1247   1.401       .  A
C1246      F1251   1.358       .  S
C1247      C1248   1.414       .  A
C1247      F1253   1.357       .  S
C1248      C1249   1.416       .  A
C1249      C1250   1.397       .  A
C1249      F1252   1.357       .  S
C1250      F1254   1.358       .  S
C1257      C1258   1.402       .  A
C1257      C1262   1.399       .  A
C1257      F1275   1.358       .  S
C1258      C1263   1.474       .  S
C1258      C1259   1.401       .  A
C1259      C1260   1.396       .  A
C1259      F1264   1.358       .  S
C1260      C1261   1.412       .  A
C1260      F1276   1.357       .  S
C1261      C1262   1.413       .  A
C1262      F1265   1.358       .  S
C1263      C1266   1.402       .  A
C1263      C1270   1.405       .  A
C1266      C1267   1.394       .  A
C1266      F1271   1.358       .  S
C1267      C1268   1.407       .  A
C1267      F1273   1.358       .  S
C1268      C1269   1.406       .  A
C1269      C1270   1.402       .  A
C1269      F1272   1.358       .  S
C1270      F1274   1.358       .  S
C1277      C1278   1.400       .  A
C1277      C1282   1.395       .  A
C1277      F1295   1.358       .  S
C1278      C1283   1.469       .  S
C1278      C1279   1.400       .  A
C1279      C1280   1.398       .  A
C1279      F1284   1.358       .  S
C1280      C1281   1.413       .  A
C1280      F1296   1.358       .  S
C1281      C1282   1.411       .  A
C1282      F1285   1.357       .  S
C1283      C1286   1.400       .  A
C1283      C1290   1.400       .  A
C1286      C1287   1.397       .  A
C1286      F1291   1.358       .  S
C1287      C1288   1.412       .  A
C1287      F1293   1.358       .  S
C1288      C1289   1.412       .  A
C1289      C1290   1.397       .  A
C1289      F1292   1.358       .  S
C1290      F1294   1.358       .  S
C1297      C1298   1.400       .  A
C1297      C1302   1.394       .  A
C1297      F1315   1.359       .  S
C1298      C1303   1.476       .  S
C1298      C1299   1.403       .  A
C1299      C1300   1.399       .  A
C1299      F1304   1.358       .  S
C1300      C1301   1.413       .  A
C1300      F1316   1.357       .  S
C1301      C1302   1.415       .  A
C1302      F1305   1.356       .  S
C1303      C1306   1.404       .  A
C1303      C1310   1.403       .  A
C1306      C1307   1.395       .  A
C1306      F1311   1.358       .  S
C1307      C1308   1.409       .  A
C1307      F1313   1.358       .  S
C1308      C1309   1.411       .  A
C1309      C1310   1.398       .  A
C1309      F1312   1.358       .  S
C1310      F1314   1.358       .  S
C1317      C1318   1.398       .  A
C1317      C1322   1.396       .  A
C1317      F1335   1.358       .  S
C1318      C1323   1.468       .  S
C1318      C1319   1.401       .  A
C1319      C1320   1.396       .  A
C1319      F1324   1.358       .  S
C1320      C1321   1.412       .  A
C1320      F1336   1.357       .  S
C1321      C1322   1.415       .  A
C1322      F1325   1.357       .  S
C1323      C1326   1.398       .  A
C1323      C1330   1.400       .  A
C1326      C1327   1.393       .  A
C1326      F1331   1.358       .  S
C1327      C1328   1.414       .  A
C1327      F1333   1.356       .  S
C1328      C1329   1.414       .  A
C1329      C1330   1.398       .  A
C1329      F1332   1.357       .  S
C1330      F1334   1.358       .  S
C1337      C1338   1.404       .  A
C1337      C1342   1.402       .  A
C1337      F1355   1.358       .  S
C1338      C1343   1.479       .  S
C1338      C1339   1.401       .  A
C1339      C1340   1.393       .  A
C1339      F1344   1.359       .  S
C1340      C1341   1.414       .  A
C1340      F1356   1.358       .  S
C1341      C1342   1.413       .  A
C1342      F1345   1.357       .  S
C1343      C1346   1.403       .  A
C1343      C1350   1.403       .  A
C1346      C1347   1.399       .  A
C1346      F1351   1.358       .  S
C1347      C1348   1.413       .  A
C1347      F1353   1.357       .  S
C1348      C1349   1.411       .  A
C1349      C1350   1.397       .  A
C1349      F1352   1.357       .  S
C1350      F1354   1.358       .  S
C1357      C1358   1.401       .  A
C1357      C1362   1.396       .  A
C1357      F1375   1.358       .  S
C1358      C1363   1.479       .  S
C1358      C1359   1.404       .  A
C1359      C1360   1.400       .  A
C1359      F1364   1.358       .  S
C1360      C1361   1.412       .  A
C1360      F1376   1.358       .  S
C1361      C1362   1.413       .  A
C1362      F1365   1.357       .  S
C1363      C1366   1.403       .  A
C1363      C1370   1.401       .  A
C1366      C1367   1.400       .  A
C1366      F1371   1.358       .  S
C1367      C1368   1.414       .  A
C1367      F1373   1.357       .  S
C1368      C1369   1.414       .  A
C1369      C1370   1.397       .  A
C1369      F1372   1.356       .  S
C1370      F1374   1.358       .  S
C1377      C1378   1.402       .  A
C1377      C1382   1.392       .  A
C1377      F1395   1.359       .  S
C1378      C1383   1.478       .  S
C1378      C1379   1.404       .  A
C1379      C1380   1.400       .  A
C1379      F1384   1.358       .  S
C1380      C1381   1.412       .  A
C1380      F1396   1.358       .  S
C1381      C1382   1.413       .  A
C1382      F1385   1.357       .  S
C1383      C1386   1.402       .  A
C1383      C1390   1.405       .  A
C1386      C1387   1.397       .  A
C1386      F1391   1.358       .  S
C1387      C1388   1.412       .  A
C1387      F1393   1.357       .  S
C1388      C1389   1.409       .  A
C1389      C1390   1.397       .  A
C1389      F1392   1.357       .  S
C1390      F1394   1.358       .  S
C1397      C1398   1.402       .  A
C1397      C1402   1.401       .  A
C1397      F1415   1.358       .  S
C1398      C1403   1.474       .  S
C1398      C1399   1.400       .  A
C1399      C1400   1.396       .  A
C1399      F1404   1.358       .  S
C1400      C1401   1.413       .  A
C1400      F1416   1.358       .  S
C1401      C1402   1.413       .  A
C1402      F1405   1.358       .  S
C1403      C1406   1.402       .  A
C1403      C1410   1.402       .  A
C1406      C1407   1.398       .  A
C1406      F1411   1.358       .  S
C1407      C1408   1.409       .  A
C1407      F1413   1.358       .  S
C1408      C1409   1.410       .  A
C1409      C1410   1.400       .  A
C1409      F1412   1.358       .  S
C1410      F1414   1.358       .  S
C1417      C1418   1.404       .  A
C1417      C1422   1.401       .  A
C1417      F1435   1.358       .  S
C1418      C1423   1.478       .  S
C1418      C1419   1.401       .  A
C1419      C1420   1.394       .  A
C1419      F1424   1.358       .  S
C1420      C1421   1.413       .  A
C1420      F1436   1.358       .  S
C1421      C1422   1.411       .  A
C1422      F1425   1.358       .  S
C1423      C1426   1.402       .  A
C1423      C1430   1.403       .  A
C1426      C1427   1.399       .  A
C1426      F1431   1.358       .  S
C1427      C1428   1.413       .  A
C1427      F1433   1.358       .  S
C1428      C1429   1.411       .  A
C1429      C1430   1.396       .  A
C1429      F1432   1.358       .  S
C1430      F1434   1.358       .  S
C1437      C1438   1.402       .  A
C1437      C1442   1.399       .  A
C1437      F1455   1.358       .  S
C1438      C1443   1.473       .  S
C1438      C1439   1.402       .  A
C1439      C1440   1.398       .  A
C1439      F1444   1.358       .  S
C1440      C1441   1.409       .  A
C1440      F1456   1.358       .  S
C1441      C1442   1.410       .  A
C1442      F1445   1.358       .  S
C1443      C1446   1.400       .  A
C1443      C1450   1.403       .  A
C1446      C1447   1.397       .  A
C1446      F1451   1.358       .  S
C1447      C1448   1.411       .  A
C1447      F1453   1.357       .  S
C1448      C1449   1.408       .  A
C1449      C1450   1.400       .  A
C1449      F1452   1.358       .  S
C1450      F1454   1.358       .  S
C1457      C1458   1.402       .  A
C1457      C1462   1.398       .  A
C1457      F1475   1.358       .  S
C1458      C1463   1.471       .  S
C1458      C1459   1.401       .  A
C1459      C1460   1.397       .  A
C1459      F1464   1.358       .  S
C1460      C1461   1.408       .  A
C1460      F1476   1.358       .  S
C1461      C1462   1.408       .  A
C1462      F1465   1.358       .  S
C1463      C1466   1.401       .  A
C1463      C1470   1.400       .  A
C1466      C1467   1.398       .  A
C1466      F1471   1.358       .  S
C1467      C1468   1.412       .  A
C1467      F1473   1.358       .  S
C1468      C1469   1.411       .  A
C1469      C1470   1.397       .  A
C1469      F1472   1.357       .  S
C1470      F1474   1.358       .  S
