geometry optimzed in LAMMPS
_audit_creation_date              2020-12-01 
_audit_creation_method            'lammps2cif' 
_symmetry_space_group_name_H-M    'P1' 
_symmetry_Int_Tables_number       1 
_symmetry_cell_setting            triclinic 
loop_ 
_symmetry_equiv_pos_as_xyz 
  x,y,z 
_cell_length_a                    31.1726813 
_cell_length_b                    31.150224056464914 
_cell_length_c                    35.24589941991351 
_cell_angle_alpha                 89.98489930935207 
_cell_angle_beta                  89.98853716997341 
_cell_angle_gamma                 90.0127928692734 
loop_ 
_atom_site_label 
_atom_site_type_symbol 
_atom_site_fract_x 
_atom_site_fract_y 
_atom_site_fract_z 
_atom_site_charge 
In1        In  0.34166800  0.29324363  0.58363259     1.36900
C2          C  0.26855611  0.33295556  0.58185839     0.79000
O3          O  0.35479129  0.35809598  0.56290612    -0.59400
O4          O  0.36163785  0.30785103  0.52172789    -0.50300
C5          C  0.41610771  0.30666841  0.61535881     0.71700
O6          O  0.38119146  0.31862556  0.63037726    -0.45200
C7          C  0.30589227  0.21981412  0.60790898     0.76400
O8          O  0.29254845  0.33527845  0.61083505    -0.57000
O9          O  0.31651381  0.22537808  0.57335111    -0.47100
O10         O  0.27987733  0.30686656  0.55631984    -0.53500
C11         C  0.36211226  0.34813586  0.52876584     0.86600
O12         O  0.41290789  0.28382926  0.58565744    -0.55400
O13         O  0.31988403  0.24835458  0.63012896    -0.58700
C14         C  0.19696482  0.46114588  0.52361720     0.31500
C15         C  0.14044470  0.43335391  0.57580730     0.31500
C16         C  0.15373009  0.44753781  0.50689168    -0.04700
C17         C  0.21059133  0.42254219  0.54738840    -0.05500
C18         C  0.17136933  0.99381668  0.54791500    -0.05400
C19         C  0.12570033  0.42831042  0.53354907    -0.04700
C20         C  0.18290232  0.40950607  0.57564742    -0.05500
C21         C  0.15524622  0.48091129  0.58002845    -0.05400
C22         C  0.11078733  0.39128227  0.51461949    -0.30800
N23         N  0.12403726  0.39175079  0.47776724     0.15700
C24         C  0.14814105  0.42721228  0.47299463    -0.30800
H25         H  0.16622787  0.43432831  0.44759712     0.17700
C26         C  0.20139373  0.37477752  0.59367288    -0.29800
N27         N  0.23723972  0.36461009  0.57398492     0.14400
C28         C  0.24221790  0.39259999  0.54514764    -0.29800
C29         C  0.14762985  0.00923469  0.60521455    -0.30000
N30         N  0.17359239  0.04178772  0.59309430     0.15000
H31         H  0.13410327  0.00687272  0.63341840     0.17600
C32         C  0.18819925  0.03237664  0.55832709    -0.30100
H33         H  0.21244559  0.05054024  0.54323752     0.17600
H34         H  0.26613121  0.39004732  0.52325830     0.17600
H35         H  0.09615906  0.36375721  0.52818814     0.17700
H36         H  0.18993551  0.35822799  0.61859541     0.17600
C37         C  0.29974752  0.46042341  0.45660101     0.31500
C38         C  0.35389621  0.42991796  0.40378643     0.31500
C39         C  0.34032949  0.44054920  0.47296768    -0.04700
C40         C  0.28224644  0.42587534  0.43005139    -0.05500
C41         C  0.30440528  0.99408729  0.42576955    -0.05400
C42         C  0.36676537  0.42030319  0.44595330    -0.04700
C43         C  0.30891659  0.41147209  0.40158767    -0.05500
C44         C  0.34520058  0.47922939  0.40203246    -0.05400
C45         C  0.37837467  0.38143401  0.46379751    -0.30800
N46         N  0.36495656  0.38175733  0.50065885     0.15700
C47         C  0.34356523  0.41875403  0.50625318    -0.30800
H48         H  0.32561206  0.42640511  0.53161515     0.17700
C49         C  0.28737991  0.37941922  0.38223659    -0.29800
N50         N  0.25027581  0.37214131  0.40114974     0.14400
C51         C  0.24787143  0.39903057  0.43097578    -0.29800
C52         C  0.33214432  0.01317912  0.37075299    -0.30000
N53         N  0.30456900  0.04454536  0.38276980     0.15000
H54         H  0.34876846  0.01319951  0.34379541     0.17600
C55         C  0.28779376  0.03304339  0.41633148    -0.30100
H56         H  0.26349673  0.05082279  0.43168848     0.17600
H57         H  0.22443921  0.39686415  0.45328473     0.17600
H58         H  0.39124739  0.35344916  0.44961329     0.17700
H59         H  0.29806723  0.36202581  0.35751603     0.17600
In60       In  0.14337483  0.30333456  0.39377306     1.36900
C61         C  0.21754513  0.34166694  0.39387255     0.79000
O62         O  0.13090282  0.36846220  0.41496843    -0.59400
O63         O  0.12522603  0.31808937  0.45607749    -0.50300
C64         C  0.06950833  0.31726566  0.36115344     0.71700
O65         O  0.10487988  0.32802965  0.34629869    -0.45200
C66         C  0.17635971  0.22816858  0.37018019     0.76400
O67         O  0.19254302  0.34503970  0.36567779    -0.57000
O68         O  0.16601934  0.23455011  0.40468204    -0.47100
O69         O  0.20639737  0.31551554  0.41941003    -0.53500
C70         C  0.12484205  0.35840938  0.44926970     0.86600
O71         O  0.07175432  0.29564261  0.39161692    -0.55400
O72         O  0.16385920  0.25721637  0.34780514    -0.58700
In73       In  0.28120699  0.15913289  0.33354740     1.36900
C74         C  0.32097277  0.23231751  0.33203206     0.79000
O75         O  0.34594039  0.14595234  0.31276202    -0.59400
O76         O  0.29570626  0.13913881  0.27161727    -0.50300
C77         C  0.29475248  0.08471158  0.36539943     0.71700
O78         O  0.30679648  0.11968866  0.38028598    -0.45200
C79         C  0.20773707  0.19488113  0.35757388     0.76400
O80         O  0.32319782  0.20820552  0.36095166    -0.57000
O81         O  0.21350724  0.18443894  0.32300880    -0.47100
O82         O  0.29493866  0.22109018  0.30643476    -0.53500
C83         C  0.33596199  0.13862896  0.27863742     0.86600
O84         O  0.27176151  0.08784622  0.33579015    -0.55400
O85         O  0.23603692  0.18064488  0.37989666    -0.60300
C86         C  0.44804406  0.20120426  0.20656824     0.31500
C87         C  0.41753309  0.14714127  0.15366768     0.31500
C88         C  0.42829579  0.16048708  0.22287259    -0.04700
C89         C  0.41341683  0.21874342  0.18013287    -0.05500
C90         C  0.48153333  0.18377435  0.18017635    -0.05400
C91         C  0.40803125  0.13409814  0.19581757    -0.04700
C92         C  0.39901549  0.19213348  0.15161796    -0.05500
C93         C  0.46679854  0.15593856  0.15188266    -0.05400
C94         C  0.36920207  0.12241959  0.21365941    -0.30800
N95         N  0.36954983  0.13576543  0.25053464     0.15700
C96         C  0.40653607  0.15714572  0.25615350    -0.30800
H97         H  0.41419676  0.17506128  0.28153811     0.17700
C98         C  0.36685815  0.21367456  0.13241676    -0.29800
N99         N  0.35949802  0.25067893  0.15148304     0.14400
C100        C  0.38644856  0.25302146  0.18126006    -0.29800
C101        C  0.00088190  0.16893419  0.12062644    -0.30000
N102        N  0.03228393  0.19642487  0.13271827     0.15000
H103        H  0.00088682  0.15236059  0.09364567     0.17600
C104        C  0.02082253  0.21311845  0.16631678    -0.30100
H105        H  0.03866191  0.23731602  0.18175289     0.17600
H106        H  0.38429534  0.27637367  0.20365265     0.17600
H107        H  0.34121688  0.10959680  0.19946161     0.17700
H108        H  0.34947733  0.20306113  0.10766809     0.17600
C109        C  0.44897965  0.30399755  0.27362551     0.31500
C110        C  0.42134647  0.36052733  0.32587246     0.31500
C111        C  0.43515789  0.34719136  0.25691631    -0.04700
C112        C  0.41059945  0.29025961  0.29760054    -0.05500
C113        C  0.48197788  0.31675863  0.30234823    -0.05400
C114        C  0.41606480  0.37524034  0.28361220    -0.04700
C115        C  0.39761721  0.31796940  0.32585662    -0.05500
C116        C  0.46894039  0.34586522  0.32990173    -0.05400
C117        C  0.37903188  0.39021545  0.26476517    -0.30800
N118        N  0.37937556  0.37696810  0.22790947     0.15700
C119        C  0.41473783  0.35276910  0.22307132    -0.30800
H120        H  0.42173876  0.33465266  0.19766925     0.17700
C121        C  0.36289237  0.29948256  0.34389870    -0.29800
N122        N  0.35270930  0.26359904  0.32423983     0.14400
C123        C  0.38066209  0.25861284  0.29539949    -0.29800
C124        C  0.99738764  0.35317397  0.35519585    -0.30000
N125        N  0.02994275  0.32732585  0.34293624     0.15000
H126        H  0.99512390  0.36667259  0.38341289     0.17600
C127        C  0.02041413  0.31269833  0.30820311    -0.30100
H128        H  0.03856644  0.28851506  0.29303422     0.17600
H129        H  0.37804802  0.23471689  0.27349361     0.17600
H130        H  0.35160823  0.40492603  0.27838361     0.17700
H131        H  0.34631081  0.31100958  0.36876714     0.17600
In132      In  0.29084014  0.35776641  0.14406757     1.36900
C133        C  0.32907870  0.28348604  0.14424912     0.79000
O134        O  0.35597787  0.37010225  0.16515122    -0.59400
O135        O  0.30572258  0.37607250  0.20630766    -0.50300
C136        C  0.30483048  0.43167205  0.11138251     0.71700
O137        O  0.31559134  0.39625714  0.09658719    -0.45200
C138        C  0.21572807  0.32470049  0.12049406     0.76400
O139        O  0.33233658  0.30841830  0.11596919    -0.57000
O140        O  0.22214934  0.33492103  0.15501758    -0.47100
O141        O  0.30309116  0.29476044  0.16985373    -0.53500
C142        C  0.34600754  0.37627223  0.19945336     0.86600
O143        O  0.28319831  0.42945883  0.14183742    -0.55400
O144        O  0.24467235  0.33740455  0.09811342    -0.58700
In145      In  0.34512125  0.20967332  0.89381090     1.36900
C146        C  0.27097066  0.17132589  0.89392140     0.79000
O147        O  0.35764217  0.14454892  0.91502876    -0.59400
O148        O  0.36323714  0.19490714  0.95613116    -0.50300
C149        C  0.41898971  0.19571857  0.86119793     0.71700
O150        O  0.38362729  0.18487533  0.84638985    -0.45200
C151        C  0.31214719  0.28482639  0.87012532     0.76400
O152        O  0.29596708  0.16800516  0.86571222    -0.57000
O153        O  0.32248040  0.27847544  0.90463350    -0.47100
O154        O  0.28210641  0.19744752  0.91947180    -0.53500
C155        C  0.36367302  0.15459023  0.94932926     0.86600
O156        O  0.41672890  0.21743527  0.89160025    -0.55400
O157        O  0.32463809  0.25574727  0.84778677    -0.58700
C158        C  0.18879371  0.05250999  0.95665209     0.31500
C159        C  0.13464680  0.08306456  0.90385347     0.31500
C160        C  0.14823402  0.07243226  0.97302994    -0.04700
C161        C  0.20631423  0.08703679  0.93007239    -0.05500
C162        C  0.17117856  0.01896016  0.93037912    -0.05400
C163        C  0.12179581  0.09267966  0.94601878    -0.04700
C164        C  0.17964183  0.10146768  0.90162307    -0.05500
C165        C  0.14329545  0.03374553  0.90211740    -0.05400
C166        C  0.11016664  0.13154062  0.96384425    -0.30800
N167        N  0.12358582  0.13122288  0.00069854     0.15700
C168        C  0.14500154  0.09423838  0.00630366    -0.30800
H169        H  0.16296035  0.08659940  0.03166594     0.17700
C170        C  0.20116525  0.13355198  0.88228340    -0.29800
N171        N  0.23826158  0.14082238  0.90119067     0.14400
C172        C  0.24067777  0.11389537  0.93099955    -0.29800
C173        C  0.15635614  0.49975757  0.87080209    -0.30000
N174        N  0.18396690  0.46840125  0.88277611     0.15000
H175        H  0.13973049  0.49976479  0.84385102     0.17600
C176        C  0.20076256  0.47988030  0.91632675    -0.30100
H177        H  0.22510863  0.46211836  0.93163826     0.17600
H178        H  0.26410442  0.11605214  0.95330786     0.17600
H179        H  0.09727366  0.15951530  0.94965333     0.17700
H180        H  0.19047043  0.15097522  0.85757936     0.17600
C181        C  0.29156063  0.05180119  0.02366817     0.31500
C182        C  0.34802749  0.07959623  0.07587405     0.31500
C183        C  0.33481086  0.06541858  0.00695540    -0.04700
C184        C  0.27790468  0.09040201  0.04742054    -0.05500
C185        C  0.30413433  0.01891866  0.05259555    -0.05400
C186        C  0.36281022  0.08465080  0.03361861    -0.04700
C187        C  0.30556455  0.10343489  0.07568781    -0.05500
C188        C  0.33323219  0.03203564  0.08010483    -0.05400
C189        C  0.37771892  0.12169397  0.01468500    -0.30800
N190        N  0.36449683  0.12123273  0.97782897     0.15700
C191        C  0.34042272  0.08575619  0.97305657    -0.30800
H192        H  0.32235354  0.07864075  0.94765348     0.17700
C193        C  0.28707577  0.13818728  0.09366761    -0.29800
N194        N  0.25127479  0.14838644  0.07393727     0.14400
C195        C  0.24631670  0.12038475  0.04511904    -0.29800
C196        C  0.34084603  0.50377719  0.10521525    -0.30000
N197        N  0.31488576  0.47123623  0.09308966     0.15000
H198        H  0.35435839  0.50611862  0.13341954     0.17600
C199        C  0.30031072  0.48066453  0.05831734    -0.30100
H200        H  0.27608535  0.46250459  0.04321515     0.17600
H201        H  0.22244386  0.12295300  0.02320177     0.17600
H202        H  0.39231402  0.14922387  0.02825357     0.17700
H203        H  0.29850595  0.15473086  0.11859102     0.17600
In204      In  0.14684001  0.21976067  0.08359642     1.36900
C205        C  0.21995749  0.18004868  0.08179174     0.79000
O206        O  0.13368767  0.15490398  0.06293056    -0.59400
O207        O  0.12688975  0.20513493  0.02170882    -0.50300
C208        C  0.07243937  0.20623682  0.11537665     0.71700
O209        O  0.10737630  0.19431937  0.13037577    -0.45200
C210        C  0.18253943  0.29322960  0.10783823     0.76400
O211        O  0.19599870  0.17777147  0.11080110    -0.57000
O212        O  0.17195820  0.28764766  0.07327957    -0.47100
O213        O  0.20861286  0.20610904  0.05623092    -0.53500
C214        C  0.12639978  0.16485271  0.02878060     0.86600
O215        O  0.07559542  0.22908687  0.08566573    -0.55400
O216        O  0.16853127  0.26469239  0.13007063    -0.58700
In217      In  0.19759444  0.15520741  0.64412582     1.36900
C218        C  0.15928177  0.22945273  0.64425455     0.79000
O219        O  0.13246029  0.14282853  0.66521444    -0.59400
O220        O  0.18270613  0.13685895  0.70636587    -0.50300
C221        C  0.18364904  0.08133221  0.61140217     0.71700
O222        O  0.17295181  0.11676673  0.59659671    -0.45200
C223        C  0.27269904  0.18834104  0.62057197     0.76400
O224        O  0.15604010  0.20449224  0.61600719    -0.57000
O225        O  0.26625384  0.17811538  0.65509748    -0.47100
O226        O  0.18527588  0.21821832  0.66986336    -0.53500
C227        C  0.14242350  0.13665102  0.69951593     0.86600
O228        O  0.20520850  0.08350740  0.64189076    -0.55400
O229        O  0.24378475  0.17561864  0.59818669    -0.58700
C230        C  0.03956758  0.20901722  0.77365342     0.31500
C231        C  0.06722440  0.15254741  0.82595362     0.31500
C232        C  0.05329225  0.16577185  0.75699301    -0.04700
C233        C  0.07802446  0.22274800  0.79751665    -0.05500
C234        C  0.50674630  0.18353928  0.79801568    -0.05400
C235        C  0.07240803  0.13775236  0.78371269    -0.04700
C236        C  0.09101773  0.19507318  0.82580587    -0.05500
C237        C  0.01966166  0.16728835  0.83004753    -0.05400
C238        C  0.10941963  0.12274390  0.76484923    -0.30800
N239        N  0.10904965  0.13594394  0.72797674     0.15700
C240        C  0.07368236  0.16013372  0.72313500    -0.30800
H241        H  0.06667230  0.17822719  0.69771243     0.17700
C242        C  0.12577637  0.21356416  0.84376727    -0.29800
N243        N  0.13598045  0.24939517  0.82402178     0.14400
C244        C  0.10799227  0.25436267  0.79521150    -0.29800
C245        C  0.49110209  0.15978777  0.85526254    -0.30000
N246        N  0.45856017  0.18564473  0.84298811     0.15000
H247        H  0.49335238  0.14629830  0.88348931     0.17600
C248        C  0.46809940  0.20024963  0.80824070    -0.30100
H249        H  0.44995557  0.22442706  0.79305167     0.17600
H250        H  0.11057267  0.27825084  0.77328106     0.17600
H251        H  0.13686125  0.10807013  0.77846609     0.17700
H252        H  0.14234402  0.20209496  0.86866318     0.17600
C253        C  0.04036525  0.31179096  0.70656757     0.31500
C254        C  0.07088581  0.36583395  0.65362628     0.31500
C255        C  0.06017280  0.35248100  0.72284344    -0.04700
C256        C  0.07495141  0.29422363  0.68010578    -0.05500
C257        C  0.50670175  0.31629673  0.67565194    -0.05400
C258        C  0.08041666  0.37887101  0.69576210    -0.04700
C259        C  0.08937030  0.32082810  0.65157846    -0.05500
C260        C  0.02161103  0.35707596  0.65187862    -0.05400
C261        C  0.11924587  0.39057900  0.71356824    -0.30800
N262        N  0.11892919  0.37723592  0.75045126     0.15700
C263        C  0.08196448  0.35581574  0.75610445    -0.30800
H264        H  0.07434117  0.33787677  0.78149914     0.17700
C265        C  0.12152580  0.29927296  0.63238363    -0.29800
N266        N  0.12884698  0.26225262  0.65145365     0.14400
C267        C  0.10188601  0.25991961  0.68123169    -0.29800
C268        C  0.48768132  0.34394296  0.62058628    -0.30000
N269        N  0.45628409  0.31642799  0.63267147     0.15000
H270        H  0.48767981  0.36054363  0.59361054     0.17600
C271        C  0.46773312  0.29972345  0.66627308    -0.30100
H272        H  0.44988869  0.27551985  0.68171470     0.17600
H273        H  0.10402405  0.23656537  0.70363302     0.17600
H274        H  0.14720998  0.40343048  0.69934411     0.17700
H275        H  0.13894421  0.30989557  0.60764890     0.17600
In276      In  0.20736398  0.35392784  0.83339524     1.36900
C277        C  0.16767136  0.28071887  0.83180061     0.79000
O278        O  0.14259559  0.36707442  0.81266678    -0.59400
O279        O  0.19279445  0.37398781  0.77148181    -0.50300
C280        C  0.19380235  0.42827393  0.86535572     0.71700
O281        O  0.18167099  0.39326728  0.88015035    -0.45200
C282        C  0.28078768  0.31812121  0.85748280     0.76400
O283        O  0.16544437  0.30476064  0.86075580    -0.57000
O284        O  0.27509307  0.32861882  0.82291590    -0.47100
O285        O  0.19367328  0.29202965  0.80618925    -0.53500
C286        C  0.15253986  0.37442586  0.77853174     0.86600
O287        O  0.21687367  0.42520159  0.83578088    -0.55400
O288        O  0.25243444  0.33231872  0.87977446    -0.58700
C289        C  0.02625171  0.24411368  0.74885685    -0.11800
C290        C  0.02618002  0.27761611  0.73199642    -0.13400
C291        C  0.10464666  0.10101327  0.87604370    -0.11800
C292        C  0.08398317  0.12199709  0.85388847    -0.13400
C293        C  0.22300546  0.03834453  0.98202929    -0.11800
C294        C  0.25647971  0.03843645  0.99889333    -0.13400
C295        C  0.37858571  0.09643671  0.10374245    -0.11800
C296        C  0.39959474  0.11715389  0.12583568    -0.13400
C297        C  0.46224010  0.26887273  0.24884190    -0.11800
C298        C  0.46224295  0.23538004  0.23197724    -0.13400
C299        C  0.38391090  0.41202455  0.37596160    -0.11800
C300        C  0.40459408  0.39108882  0.35378948    -0.13400
C301        C  0.08883265  0.39581084  0.62577240    -0.11800
C302        C  0.10985820  0.41651996  0.60367017    -0.13400
C303        C  0.23206267  0.47450006  0.49884734    -0.11800
C304        C  0.26554087  0.47457814  0.48198450    -0.13400
In305      In  0.34524257  0.80315354  0.58442514     1.36900
C306        C  0.27110012  0.84149362  0.58424971     0.79000
O307        O  0.35773176  0.86829596  0.56322960    -0.59400
O308        O  0.36343597  0.81794495  0.52212632    -0.50300
C309        C  0.41912733  0.81707278  0.61702003     0.71700
O310        O  0.38376376  0.82782764  0.63188273    -0.45200
C311        C  0.31220434  0.72802092  0.60813473     0.76400
O312        O  0.29609244  0.84488394  0.61244991    -0.57000
O313        O  0.32252868  0.73436369  0.57361848    -0.47100
O314        O  0.28224257  0.81532545  0.55873817    -0.53500
C315        C  0.36381067  0.85826340  0.52892965     0.86600
O316        O  0.41686183  0.79545013  0.58656593    -0.55400
O317        O  0.32472334  0.75709863  0.63046367    -0.58700
C318        C  0.18890708  0.96030361  0.52157272     0.31500
C319        C  0.13476215  0.92971165  0.57437830     0.31500
C320        C  0.14829946  0.94046287  0.50520331    -0.04700
C321        C  0.20639604  0.92570003  0.54807679    -0.05500
C322        C  0.18437960  0.49402626  0.55253039    -0.05400
C323        C  0.12186436  0.92017453  0.53221327    -0.04700
C324        C  0.17973145  0.91125815  0.57653752    -0.05500
C325        C  0.14348091  0.97902001  0.57617163    -0.05400
C326        C  0.11022569  0.88132820  0.51435684    -0.30800
N327        N  0.12363838  0.88169399  0.47749649     0.15700
C328        C  0.14504121  0.91870048  0.47191363    -0.30800
H329        H  0.16297770  0.92639154  0.44654367     0.17700
C330        C  0.20127061  0.87920035  0.59587637    -0.29800
N331        N  0.23836546  0.87194639  0.57695345     0.14400
C332        C  0.24076794  0.89886564  0.54713554    -0.29800
C333        C  0.15665876  0.51297486  0.60758577    -0.30000
N334        N  0.18426801  0.54435598  0.59563174     0.15000
H335        H  0.14000638  0.51293840  0.63452942     0.17600
C336        C  0.20103211  0.53294732  0.56204384    -0.30100
H337        H  0.22532016  0.55077815  0.54670415     0.17600
H338        H  0.26420118  0.89673332  0.52482230     0.17600
H339        H  0.09734377  0.85332871  0.52853094     0.17700
H340        H  0.19060586  0.86181074  0.62061599     0.17600
C341        C  0.29172676  0.96112479  0.45459145     0.31500
C342        C  0.34825749  0.93343018  0.40238847     0.31500
C343        C  0.33492334  0.94741906  0.47131809    -0.04700
C344        C  0.27805892  0.92262422  0.43071788    -0.05500
C345        C  0.31731863  0.49398520  0.43030553    -0.05400
C346        C  0.36295037  0.92824219  0.44465504    -0.04700
C347        C  0.30575541  0.90963505  0.40245946    -0.05500
C348        C  0.33353976  0.98103152  0.39825658    -0.05400
C349        C  0.37785159  0.89119034  0.46356809    -0.30800
N350        N  0.36461179  0.89162214  0.50042817     0.15700
C351        C  0.34050768  0.92706836  0.50520846    -0.30800
H352        H  0.32242729  0.93416506  0.53061634     0.17700
C353        C  0.28722825  0.87496328  0.38436725    -0.29800
N354        N  0.25134146  0.86478710  0.40401002     0.14400
C355        C  0.24638415  0.89271158  0.43288428    -0.29800
C356        C  0.34095170  0.50942022  0.37296803    -0.30000
N357        N  0.31495598  0.54192435  0.38508682     0.15000
H358        H  0.35443768  0.50707081  0.34474993     0.17600
C359        C  0.30041331  0.53250372  0.41987487    -0.30100
H360        H  0.27615157  0.55062292  0.43496858     0.17600
H361        H  0.22247471  0.89010736  0.45477422     0.17600
H362        H  0.39248622  0.86369030  0.44999171     0.17700
H363        H  0.29870975  0.85843557  0.35945295     0.17600
In364      In  0.14690635  0.79333341  0.39444313     1.36900
C365        C  0.22004048  0.83309474  0.39615095     0.79000
O366        O  0.13381619  0.85812545  0.41524708    -0.59400
O367        O  0.12689680  0.80781356  0.45637005    -0.50300
C368        C  0.07255525  0.80699035  0.36263399     0.71700
O369        O  0.10752784  0.81888987  0.34767063    -0.45200
C370        C  0.18259286  0.71985039  0.37024094     0.76400
O371        O  0.19603507  0.83538648  0.36718368    -0.57000
O372        O  0.17200393  0.72545855  0.40479577    -0.47100
O373        O  0.20872806  0.80700475  0.42170516    -0.53500
C374        C  0.12646407  0.84811105  0.44937051     0.86600
O375        O  0.07564453  0.78407379  0.39230710    -0.55400
O376        O  0.16858512  0.74835884  0.34799199    -0.58700
In377      In  0.29091952  0.65534782  0.33407414     1.36900
C378        C  0.32922176  0.72961392  0.33399018     0.79000
O379        O  0.35605490  0.64293076  0.31300365    -0.59400
O380        O  0.30582673  0.63706726  0.27182822    -0.50300
C381        C  0.30487929  0.58147010  0.36678733     0.71700
O382        O  0.31564394  0.61689562  0.38156203    -0.45200
C383        C  0.21579199  0.68839041  0.35760686     0.76400
O384        O  0.33239096  0.70465910  0.36225666    -0.57000
O385        O  0.22223862  0.67815008  0.32309021    -0.47100
O386        O  0.30328154  0.71837182  0.30834198    -0.53500
C387        C  0.34610362  0.63678760  0.27869788     0.86600
O388        O  0.28324382  0.58365599  0.33634093    -0.55400
O389        O  0.24471994  0.67571751  0.38000076    -0.60300
C390        C  0.44894543  0.70913026  0.20457866     0.31500
C391        C  0.42121818  0.65272021  0.15227890     0.31500
C392        C  0.43528499  0.66584139  0.22123203    -0.04700
C393        C  0.41041248  0.72285379  0.18080694    -0.05500
C394        C  0.48183665  0.69656495  0.17568626    -0.05400
C395        C  0.41612828  0.63784529  0.19451229    -0.04700
C396        C  0.39739422  0.69521477  0.15250804    -0.05500
C397        C  0.46874882  0.66752315  0.14811323    -0.05400
C398        C  0.37911319  0.62283828  0.21338818    -0.30800
N399        N  0.37949437  0.63603200  0.25025420     0.15700
C400        C  0.41489037  0.66019103  0.25509238    -0.30800
H401        H  0.42189875  0.67829499  0.28050217     0.17700
C402        C  0.36259856  0.71369207  0.13460843    -0.29800
N403        N  0.35237368  0.74945410  0.15441410     0.14400
C404        C  0.38039998  0.75440816  0.18319867    -0.29800
C405        C  0.99717062  0.65996581  0.12296059    -0.30000
N406        N  0.02974538  0.68580267  0.13522266     0.15000
H407        H  0.99492106  0.64644330  0.09475208     0.17600
C408        C  0.02020863  0.70043865  0.16995435    -0.30100
H409        H  0.03839000  0.72458892  0.18513965     0.17600
H410        H  0.37783582  0.77825950  0.20515100     0.17600
H411        H  0.35164742  0.60820378  0.19977321     0.17700
H412        H  0.34604293  0.70228014  0.10968841     0.17600
C413        C  0.44823397  0.81185982  0.27166582     0.31500
C414        C  0.41775708  0.86593022  0.32457326     0.31500
C415        C  0.42837531  0.85251156  0.25536360    -0.04700
C416        C  0.41370131  0.79428139  0.29819180    -0.05500
C417        C  0.48176288  0.82938744  0.29796969    -0.05400
C418        C  0.40816954  0.87891666  0.28243422    -0.04700
C419        C  0.39929651  0.82090616  0.32669707    -0.05500
C420        C  0.46703606  0.85722612  0.32627446    -0.05400
C421        C  0.36932975  0.89061381  0.26465327    -0.30800
N422        N  0.36960334  0.87724996  0.22778365     0.15700
C423        C  0.40654712  0.85581795  0.22211678    -0.30800
H424        H  0.41412783  0.83786000  0.19673252     0.17700
C425        C  0.36707559  0.79939621  0.34587114    -0.29800
N426        N  0.35971041  0.76238633  0.32680988     0.14400
C427        C  0.38670403  0.76001496  0.29706020    -0.29800
C428        C  0.00107017  0.84440872  0.35738248    -0.30000
N429        N  0.03243437  0.81688391  0.34528602     0.15000
H430        H  0.00107588  0.86094549  0.38438095     0.17600
C431        C  0.02093606  0.80016834  0.31171082    -0.30100
H432        H  0.03869599  0.77587900  0.29631897     0.17600
H433        H  0.38454763  0.73665891  0.27466904     0.17600
H434        H  0.34138912  0.90348161  0.27888696     0.17700
H435        H  0.34962411  0.81005791  0.37056636     0.17600
In436      In  0.28103711  0.85397069  0.14497418     1.36900
C437        C  0.32070751  0.78078694  0.14662771     0.79000
O438        O  0.34584945  0.86714778  0.16558921    -0.59400
O439        O  0.29571338  0.87395647  0.20685479    -0.50300
C440        C  0.29452306  0.92837007  0.11307570     0.71700
O441        O  0.30657282  0.89339272  0.09819791    -0.45200
C442        C  0.20761810  0.81819174  0.12084360     0.76400
O443        O  0.32296233  0.80483464  0.11766507    -0.57000
O444        O  0.21329502  0.82865960  0.15541653    -0.47100
O445        O  0.29468309  0.79207514  0.17222123    -0.53500
C446        C  0.33595536  0.87444390  0.19974358     0.86600
O447        O  0.27158007  0.92524465  0.14272650    -0.55400
O448        O  0.23599247  0.83240378  0.09856625    -0.58700
In449      In  0.34154362  0.71967242  0.89439687     1.36900
C450        C  0.26843858  0.67984990  0.89602567     0.79000
O451        O  0.35469333  0.65489989  0.91521429    -0.59400
O452        O  0.36150415  0.70520489  0.95633331    -0.50300
C453        C  0.41597650  0.70609609  0.86269491     0.71700
O454        O  0.38104919  0.69414752  0.84769619    -0.45200
C455        C  0.30583089  0.79313859  0.87019725     0.76400
O456        O  0.29250032  0.67758674  0.86708620    -0.57000
O457        O  0.31638960  0.78750677  0.90475458    -0.47100
O458        O  0.27968354  0.70593869  0.92158793    -0.53500
C459        C  0.36202355  0.66491370  0.94933374     0.86600
O460        O  0.41279649  0.72903561  0.89233673    -0.55400
O461        O  0.31988211  0.76466386  0.84794257    -0.58700
C462        C  0.19685796  0.55179420  0.95457023     0.31500
C463        C  0.14025297  0.57948265  0.90243091     0.31500
C464        C  0.15369932  0.56554071  0.97135017    -0.04700
C465        C  0.21050338  0.59026328  0.93062999    -0.05500
C466        C  0.18411778  0.51881085  0.92580307    -0.05400
C467        C  0.12563010  0.58470086  0.94471697    -0.04700
C468        C  0.18276523  0.60325871  0.90240980    -0.05500
C469        C  0.15494204  0.53186845  0.89832319    -0.05400
C470        C  0.11073849  0.62174899  0.96362990    -0.30800
N471        N  0.12402788  0.62132775  0.00047230     0.15700
C472        C  0.14816850  0.58590092  0.00523657    -0.30800
H473        H  0.16628645  0.57881934  0.03061609     0.17700
C474        C  0.20125909  0.63794780  0.88428954    -0.29800
N475        N  0.23717941  0.64810767  0.90387470     0.14400
C476        C  0.24218154  0.62016953  0.93274049    -0.29800
C477        C  0.14750016  0.00355747  0.87305954    -0.30000
N478        N  0.17347218  0.97102619  0.88516601     0.15000
H479        H  0.13400935  0.00593166  0.84484876     0.17600
C480        C  0.18804530  0.98042782  0.91994148    -0.30100
H481        H  0.21230985  0.96229096  0.93501490     0.17600
H482        H  0.26611243  0.62277442  0.95460074     0.17600
H483        H  0.09605136  0.64923325  0.95006230     0.17700
H484        H  0.18972074  0.65451216  0.85941137     0.17600
C485        C  0.29968025  0.55273952  0.02153389     0.31500
C486        C  0.35379246  0.58329737  0.07434954     0.31500
C487        C  0.34032910  0.57252040  0.00516901    -0.04700
C488        C  0.28219662  0.58738256  0.04799654    -0.05500
C489        C  0.31715549  0.51922562  0.04791102    -0.05400
C490        C  0.36673789  0.59282185  0.03218070    -0.04700
C491        C  0.30883807  0.60178994  0.07647309    -0.05500
C492        C  0.34502520  0.53400082  0.07616892    -0.05400
C493        C  0.37833047  0.63169097  0.01431388    -0.30800
N494        N  0.36492857  0.63132252  0.97745588     0.15700
C495        C  0.34359231  0.59428644  0.97187482    -0.30800
H496        H  0.32567291  0.58658430  0.94651051     0.17700
C497        C  0.28729268  0.63383506  0.09581178    -0.29800
N498        N  0.25023537  0.64114392  0.07685976     0.14400
C499        C  0.24785239  0.61425521  0.04702852    -0.29800
C500        C  0.33184965  0.99993179  0.10764279    -0.30000
N501        N  0.30429581  0.96852629  0.09566121     0.15000
H502        H  0.34848241  0.99995552  0.13459037     0.17600
C503        C  0.28754205  0.97995568  0.06207556    -0.30100
H504        H  0.26329566  0.96210827  0.04671679     0.17600
H505        H  0.22443503  0.61640523  0.02471523     0.17600
H506        H  0.39115015  0.65971030  0.02848634     0.17700
H507        H  0.29791673  0.65116107  0.12058977     0.17600
In508      In  0.14326909  0.70977437  0.08446378     1.36900
C509        C  0.21746434  0.67154367  0.08420355     0.79000
O510        O  0.13087031  0.64462011  0.06327737    -0.59400
O511        O  0.12511474  0.69499107  0.02217383    -0.50300
C512        C  0.06934514  0.69583522  0.11702518     0.71700
O513        O  0.10469081  0.68505115  0.13190045    -0.45200
C514        C  0.17625410  0.78490582  0.10818285     0.76400
O515        O  0.19250476  0.66809182  0.11243413    -0.57000
O516        O  0.16592451  0.77859189  0.07366985    -0.47100
O517        O  0.20626224  0.69772271  0.05871259    -0.53500
C518        C  0.12478959  0.65466762  0.02897692     0.86600
O519        O  0.07164988  0.71747324  0.08657130    -0.55400
O520        O  0.16375576  0.75579862  0.13051042    -0.58700
In521      In  0.20745067  0.65888665  0.64496130     1.36900
C522        C  0.16779688  0.73207594  0.64658416     0.79000
O523        O  0.14263379  0.64573822  0.66561313    -0.59400
O524        O  0.19276842  0.63886756  0.70685338    -0.50300
C525        C  0.19402379  0.58450279  0.61304872     0.71700
O526        O  0.18192088  0.61948217  0.59819946    -0.45200
C527        C  0.28083955  0.69472893  0.62080436     0.76400
O528        O  0.16551007  0.70800827  0.61764803    -0.57000
O529        O  0.27518307  0.68421364  0.65537616    -0.47100
O530        O  0.19383298  0.72079393  0.67216733    -0.53500
C531        C  0.15252546  0.63841368  0.69976263     0.86600
O532        O  0.21698750  0.58762093  0.64267816    -0.55400
O533        O  0.25245652  0.68054362  0.59853906    -0.58700
C534        C  0.04027945  0.70102709  0.77168011     0.31500
C535        C  0.07073501  0.64697998  0.82462418     0.31500
C536        C  0.06010852  0.66035586  0.75540432    -0.04700
C537        C  0.07483025  0.71860701  0.79816959    -0.05500
C538        C  0.50661973  0.69636225  0.80246794    -0.05400
C539        C  0.08031427  0.63396379  0.78249014    -0.04700
C540        C  0.08921878  0.69199815  0.82669841    -0.05500
C541        C  0.02145916  0.65570986  0.82633856    -0.05400
C542        C  0.11915401  0.62226192  0.76469993    -0.30800
N543        N  0.11887742  0.63560701  0.72781816     0.15700
C544        C  0.08192982  0.65703060  0.72214916    -0.30800
H545        H  0.07434524  0.67497633  0.69675607     0.17700
C546        C  0.12139667  0.71354150  0.84588223    -0.29800
N547        N  0.12875815  0.75055638  0.82680398     0.14400
C548        C  0.10180208  0.75289564  0.79703300    -0.29800
C549        C  0.48750788  0.66873131  0.85752062    -0.30000
N550        N  0.45614399  0.69624880  0.84540165     0.15000
H551        H  0.48747297  0.65217155  0.88451571     0.17600
C552        C  0.46765286  0.71294446  0.81181182    -0.30100
H553        H  0.44986938  0.73718298  0.79637384     0.17600
H554        H  0.10396265  0.77625208  0.77462961     0.17600
H555        H  0.14709936  0.60940842  0.77893413     0.17700
H556        H  0.13881536  0.70290386  0.87060343     0.17600
C557        C  0.03957611  0.80373932  0.70455541     0.31500
C558        C  0.06731833  0.86017839  0.65225740     0.31500
C559        C  0.05321238  0.84702433  0.72120765    -0.04700
C560        C  0.07812924  0.79003688  0.68079372    -0.05500
C561        C  0.50686574  0.82925378  0.68020201    -0.05400
C562        C  0.07237143  0.87503806  0.69448774    -0.04700
C563        C  0.09116268  0.81769364  0.65249587    -0.05500
C564        C  0.01979642  0.84535492  0.64807904    -0.05400
C565        C  0.10935988  0.89007067  0.71336701    -0.30800
N566        N  0.10895990  0.87687413  0.75023731     0.15700
C567        C  0.07358195  0.85267875  0.75507275    -0.30800
H568        H  0.06656365  0.83457378  0.78048840     0.17700
C569        C  0.12595132  0.79921161  0.63458237    -0.29800
N570        N  0.13614350  0.76341831  0.65437238     0.14400
C571        C  0.10811003  0.75845276  0.68316091    -0.29800
C572        C  0.49127053  0.85299313  0.62294777    -0.30000
N573        N  0.45870383  0.82714200  0.63522260     0.15000
H574        H  0.49354353  0.86648226  0.59472075     0.17600
C575        C  0.46821498  0.81254796  0.66997585    -0.30100
H576        H  0.45004417  0.78838422  0.68517274     0.17600
H577        H  0.11064832  0.73457070  0.70509819     0.17600
H578        H  0.13682265  0.90473625  0.69975496     0.17700
H579        H  0.14252208  0.81063897  0.60966504     0.17600
In580      In  0.19749531  0.85764929  0.83407543     1.36900
C581        C  0.15920706  0.78336170  0.83399217     0.79000
O582        O  0.13235874  0.87000746  0.81299838    -0.59400
O583        O  0.18261014  0.87595801  0.77183285    -0.50300
C584        C  0.18354484  0.93150064  0.86683867     0.71700
O585        O  0.17284743  0.89605162  0.88162742    -0.45200
C586        C  0.27262562  0.82459212  0.85756818     0.76400
O587        O  0.15596878  0.80832949  0.86223417    -0.57000
O588        O  0.26616919  0.83483685  0.82305210    -0.47100
O589        O  0.18519370  0.79460958  0.80836903    -0.53500
C590        C  0.14232740  0.87616877  0.77869243     0.86600
O591        O  0.20510049  0.92935726  0.83633936    -0.55400
O592        O  0.24370780  0.83726540  0.87997561    -0.58700
C593        C  0.02611840  0.73518740  0.74624478    -0.11800
C594        C  0.02621009  0.76867094  0.72936216    -0.13400
C595        C  0.10963115  0.59627542  0.87459084    -0.11800
C596        C  0.08863291  0.61698881  0.85248263    -0.13400
C597        C  0.23200083  0.53853000  0.97931500    -0.11800
C598        C  0.26548533  0.53853504  0.99616034    -0.13400
C599        C  0.38377218  0.60124154  0.10217195    -0.11800
C600        C  0.40443274  0.62220840  0.12433590    -0.13400
C601        C  0.46239591  0.77768181  0.24625095    -0.11800
C602        C  0.46230273  0.74419559  0.22938106    -0.13400
C603        C  0.37884606  0.91663556  0.37451967    -0.11800
C604        C  0.39984443  0.89592581  0.35241199    -0.13400
C605        C  0.08410588  0.89072098  0.62432724    -0.11800
C606        C  0.10476987  0.91173487  0.60218669    -0.13400
C607        C  0.22312294  0.97449684  0.49620066    -0.11800
C608        C  0.25661599  0.97443355  0.47935780    -0.13400
In609      In  0.84524239  0.30315362  0.58442481     1.36900
C610        C  0.77110010  0.34149395  0.58424954     0.79000
O611        O  0.85773207  0.36829599  0.56322943    -0.59400
O612        O  0.86343596  0.31794505  0.52212603    -0.50300
C613        C  0.91912723  0.31707229  0.61701974     0.71700
O614        O  0.88376376  0.32782743  0.63188245    -0.45200
C615        C  0.81220400  0.22802119  0.60813433     0.76400
O616        O  0.79609250  0.34488405  0.61244968    -0.57000
O617        O  0.82252807  0.23436399  0.57361802    -0.47100
O618        O  0.78224234  0.31532585  0.55873787    -0.53500
C619        C  0.86381083  0.35826350  0.52892944     0.86600
O620        O  0.91686154  0.29544962  0.58656565    -0.55400
O621        O  0.82472337  0.25709871  0.63046328    -0.58700
C622        C  0.68890726  0.46030419  0.52157288     0.31500
C623        C  0.63476225  0.42971228  0.57437839     0.31500
C624        C  0.64829964  0.44046343  0.50520341    -0.04700
C625        C  0.70639622  0.42570069  0.54807703    -0.05500
C626        C  0.68437933  0.99402673  0.55253022    -0.05400
C627        C  0.62186454  0.42017508  0.53221336    -0.04700
C628        C  0.67973158  0.41125879  0.57653772    -0.05500
C629        C  0.64348101  0.47902065  0.57617167    -0.05400
C630        C  0.61022604  0.38132863  0.51435700    -0.30800
N631        N  0.62363877  0.38169438  0.47749663     0.15700
C632        C  0.64504154  0.41870091  0.47191377    -0.30800
H633        H  0.66297799  0.42639196  0.44654386     0.17700
C634        C  0.70127067  0.37920078  0.59587644    -0.29800
N635        N  0.73836552  0.37194688  0.57695350     0.14400
C636        C  0.74076799  0.39886621  0.54713570    -0.29800
C637        C  0.65665846  0.01297531  0.60758561    -0.30000
N638        N  0.68426773  0.04435642  0.59563161     0.15000
H639        H  0.64000605  0.01293881  0.63452927     0.17600
C640        C  0.70103187  0.03294774  0.56204376    -0.30100
H641        H  0.72532011  0.05077870  0.54670396     0.17600
H642        H  0.76420134  0.39673384  0.52482220     0.17600
H643        H  0.59734426  0.35332929  0.52853107     0.17700
H644        H  0.69060586  0.36181100  0.62061593     0.17600
C645        C  0.79172697  0.46112531  0.45459166     0.31500
C646        C  0.84825758  0.43343074  0.40238857     0.31500
C647        C  0.83492354  0.44741947  0.47131825    -0.04700
C648        C  0.77805903  0.42262479  0.43071809    -0.05500
C649        C  0.81731854  0.99398583  0.43030546    -0.05400
C650        C  0.86295051  0.42824267  0.44465511    -0.04700
C651        C  0.80575545  0.40963570  0.40245959    -0.05500
C652        C  0.83353995  0.48103208  0.39825675    -0.05400
C653        C  0.87785168  0.39119072  0.46356797    -0.30800
N654        N  0.86461191  0.39162231  0.50042806     0.15700
C655        C  0.84050786  0.42706855  0.50520853    -0.30800
H656        H  0.82242750  0.43416513  0.53061652     0.17700
C657        C  0.78722828  0.37496399  0.38436743    -0.29800
N658        N  0.75134152  0.36478777  0.40401013     0.14400
C659        C  0.74638422  0.39271216  0.43288453    -0.29800
C660        C  0.84095198  0.00942101  0.37296809    -0.30000
N661        N  0.81495638  0.04192525  0.38508691     0.15000
H662        H  0.85443804  0.00707164  0.34475005     0.17600
C663        C  0.80041339  0.03250447  0.41987484    -0.30100
H664        H  0.77615168  0.05062359  0.43496842     0.17600
H665        H  0.72247504  0.39010781  0.45477437     0.17600
H666        H  0.89248628  0.36369077  0.44999145     0.17700
H667        H  0.79870990  0.35843612  0.35945292     0.17600
In668      In  0.64690674  0.29333381  0.39444321     1.36900
C669        C  0.72004066  0.33309536  0.39615104     0.79000
O670        O  0.63381624  0.35812581  0.41524715    -0.59400
O671        O  0.62689751  0.30781395  0.45637021    -0.50300
C672        C  0.57255553  0.30699042  0.36263439     0.71700
O673        O  0.60752798  0.31889051  0.34767114    -0.45200
C674        C  0.68259334  0.21985097  0.37024083     0.76400
O675        O  0.69603520  0.33538714  0.36718378    -0.57000
O676        O  0.67200429  0.22545894  0.40479567    -0.47100
O677        O  0.70872844  0.30700517  0.42170515    -0.53500
C678        C  0.62646444  0.34811142  0.44937065     0.86600
O679        O  0.57564503  0.28407354  0.39230730    -0.55400
O680        O  0.66858577  0.24835956  0.34799195    -0.58700
In681      In  0.79091992  0.15534855  0.33407413     1.36900
C682        C  0.82922192  0.22961467  0.33399013     0.79000
O683        O  0.85605533  0.14293178  0.31300366    -0.59400
O684        O  0.80582718  0.13706796  0.27182824    -0.50300
C685        C  0.80487971  0.08147102  0.36678742     0.71700
O686        O  0.81564440  0.11689657  0.38156210    -0.45200
C687        C  0.71579246  0.18839100  0.35760675     0.76400
O688        O  0.83239131  0.20465985  0.36225660    -0.57000
O689        O  0.72223921  0.17815086  0.32309006    -0.47100
O690        O  0.80328160  0.21837253  0.30834201    -0.53500
C691        C  0.84610409  0.13678856  0.27869790     0.86600
O692        O  0.78324414  0.08365689  0.33634107    -0.55400
O693        O  0.74472025  0.17571794  0.38000071    -0.60300
C694        C  0.94894546  0.20913129  0.20457827     0.31500
C695        C  0.92121819  0.15272095  0.15227876     0.31500
C696        C  0.93528522  0.16584245  0.22123180    -0.04700
C697        C  0.91041241  0.22285458  0.18080662    -0.05500
C698        C  0.98183659  0.19656604  0.17568578    -0.05400
C699        C  0.91612850  0.13784616  0.19451218    -0.04700
C700        C  0.89739408  0.19521542  0.15250785    -0.05500
C701        C  0.96874875  0.16752404  0.14811290    -0.05400
C702        C  0.87911361  0.12283917  0.21338827    -0.30800
N703        N  0.87949480  0.13603301  0.25025421     0.15700
C704        C  0.91489075  0.16019213  0.25509219    -0.30800
H705        H  0.92189922  0.17829639  0.28050216     0.17700
C706        C  0.86259838  0.21369266  0.13460826    -0.29800
N707        N  0.85237366  0.24945485  0.15441373     0.14400
C708        C  0.88039997  0.25440898  0.18319830    -0.29800
C709        C  0.49717072  0.15996514  0.12296088    -0.30000
N710        N  0.52974547  0.18580192  0.13522307     0.15000
H711        H  0.49492110  0.14644290  0.09475227     0.17600
C712        C  0.52020867  0.20043772  0.16995476    -0.30100
H713        H  0.53839005  0.22458817  0.18514019     0.17600
H714        H  0.87783586  0.27826028  0.20515057     0.17600
H715        H  0.85164753  0.10820431  0.19977330     0.17700
H716        H  0.84604258  0.20228059  0.10968824     0.17600
C717        C  0.94823391  0.31186071  0.27166564     0.31500
C718        C  0.91775716  0.36593098  0.32457320     0.31500
C719        C  0.92837513  0.35251239  0.25536350    -0.04700
C720        C  0.91370141  0.29428217  0.29819171    -0.05500
C721        C  0.98176288  0.32938830  0.29796945    -0.05400
C722        C  0.90816943  0.37891745  0.28243416    -0.04700
C723        C  0.89929671  0.32090689  0.32669705    -0.05500
C724        C  0.96703613  0.35722691  0.32627430    -0.05400
C725        C  0.86932958  0.39061448  0.26465324    -0.30800
N726        N  0.86960307  0.37725062  0.22778364     0.15700
C727        C  0.90654691  0.35581869  0.22211664    -0.30800
H728        H  0.91412756  0.33786103  0.19673267     0.17700
C729        C  0.86707569  0.29939700  0.34587109    -0.29800
N730        N  0.85971043  0.26238716  0.32680971     0.14400
C731        C  0.88670399  0.26001587  0.29706000    -0.29800
C732        C  0.50107028  0.34440841  0.35738271    -0.30000
N733        N  0.53243455  0.31688358  0.34528644     0.15000
H734        H  0.50107602  0.36094559  0.38438091     0.17600
C735        C  0.52093617  0.30016745  0.31171145    -0.30100
H736        H  0.53869623  0.27587813  0.29631979     0.17600
H737        H  0.88454750  0.23665987  0.27466872     0.17600
H738        H  0.84138885  0.40348221  0.27888704     0.17700
H739        H  0.84962439  0.31005858  0.37056610     0.17600
In740      In  0.78103678  0.35397112  0.14497421     1.36900
C741        C  0.82070734  0.28078754  0.14662741     0.79000
O742        O  0.84584916  0.36714816  0.16558923    -0.59400
O743        O  0.79571310  0.37395684  0.20685481    -0.50300
C744        C  0.79452276  0.42837061  0.11307599     0.71700
O745        O  0.80657254  0.39339328  0.09819820    -0.45200
C746        C  0.70761767  0.31819215  0.12084381     0.76400
O747        O  0.82296205  0.30483534  0.11766481    -0.57000
O748        O  0.71329477  0.32865992  0.15541673    -0.47100
O749        O  0.79468286  0.29207550  0.17222095    -0.53500
C750        C  0.83595508  0.37444434  0.19974358     0.86600
O751        O  0.77157960  0.42524516  0.14272670    -0.55400
O752        O  0.73599183  0.33240442  0.09856637    -0.58700
In753      In  0.84154400  0.21967284  0.89439666     1.36900
C754        C  0.76843874  0.17985053  0.89602557     0.79000
O755        O  0.85469341  0.15490031  0.91521409    -0.59400
O756        O  0.86150484  0.20520537  0.95633299    -0.50300
C757        C  0.91597681  0.20609599  0.86269461     0.71700
O758        O  0.88104934  0.19414807  0.84769581    -0.45200
C759        C  0.80583132  0.29313916  0.87019729     0.76400
O760        O  0.79250040  0.17758742  0.86708607    -0.57000
O761        O  0.81638995  0.28750716  0.90475461    -0.47100
O762        O  0.77968388  0.20593908  0.92158794    -0.53500
C763        C  0.86202392  0.16491414  0.94933350     0.86600
O764        O  0.91279711  0.22903535  0.89233655    -0.55400
O765        O  0.81988274  0.26466461  0.84794252    -0.58700
C766        C  0.69685827  0.05179483  0.95457001     0.31500
C767        C  0.64025317  0.07948328  0.90243081     0.31500
C768        C  0.65369966  0.06554129  0.97134999    -0.04700
C769        C  0.71050364  0.09026389  0.93062981    -0.05500
C770        C  0.68411817  0.01881152  0.92580281    -0.05400
C771        C  0.62563034  0.08470142  0.94471687    -0.04700
C772        C  0.68276539  0.10325938  0.90240970    -0.05500
C773        C  0.65494238  0.03186910  0.89832296    -0.05400
C774        C  0.61073856  0.12174940  0.96362993    -0.30800
N775        N  0.62402798  0.12132805  0.00047233     0.15700
C776        C  0.64816879  0.08590135  0.00523641    -0.30800
H777        H  0.66628690  0.07881969  0.03061607     0.17700
C778        C  0.70125919  0.13794848  0.88428947    -0.29800
N779        N  0.73717958  0.14810827  0.90387453     0.14400
C780        C  0.74218185  0.12017008  0.93274024    -0.29800
C781        C  0.64750026  0.50355815  0.87305952    -0.30000
N782        N  0.67347242  0.47102694  0.88516596     0.15000
H783        H  0.63400944  0.50593238  0.84484869     0.17600
C784        C  0.68804537  0.48042854  0.91994147    -0.30100
H785        H  0.71230995  0.46229168  0.93501496     0.17600
H786        H  0.76611280  0.12277495  0.95460042     0.17600
H787        H  0.59605129  0.14923373  0.95006243     0.17700
H788        H  0.68972071  0.15451291  0.85941130     0.17600
C789        C  0.79968043  0.05274016  0.02153374     0.31500
C790        C  0.85379261  0.08329797  0.07434944     0.31500
C791        C  0.84032932  0.07252091  0.00516889    -0.04700
C792        C  0.78219683  0.08738329  0.04799634    -0.05500
C793        C  0.81715553  0.01922626  0.04791097    -0.05400
C794        C  0.86673804  0.09282238  0.03218058    -0.04700
C795        C  0.80883824  0.10179061  0.07647295    -0.05500
C796        C  0.84502525  0.03400141  0.07616889    -0.05400
C797        C  0.87833074  0.13169150  0.01431373    -0.30800
N798        N  0.86492894  0.13132296  0.97745567     0.15700
C799        C  0.84359266  0.09428686  0.97187461    -0.30800
H800        H  0.82567342  0.08658475  0.94651041     0.17700
C801        C  0.78729280  0.13383565  0.09581171    -0.29800
N802        N  0.75023546  0.14114445  0.07685974     0.14400
C803        C  0.74785253  0.11425588  0.04702835    -0.29800
C804        C  0.83184943  0.49993237  0.10764300    -0.30000
N805        N  0.80429557  0.46852685  0.09566149     0.15000
H806        H  0.84848227  0.49995616  0.13459062     0.17600
C807        C  0.78754183  0.47995619  0.06207581    -0.30100
H808        H  0.76329548  0.46210880  0.04671706     0.17600
H809        H  0.72443534  0.11640590  0.02471524     0.17600
H810        H  0.89115029  0.15971056  0.02848606     0.17700
H811        H  0.79791675  0.15116152  0.12058977     0.17600
In812      In  0.64326903  0.20977444  0.08446405     1.36900
C813        C  0.71746435  0.17154405  0.08420363     0.79000
O814        O  0.63087038  0.14462013  0.06327748    -0.59400
O815        O  0.62511478  0.19499124  0.02217409    -0.50300
C816        C  0.56934515  0.19583482  0.11702551     0.71700
O817        O  0.60469091  0.18505094  0.13190069    -0.45200
C818        C  0.67625380  0.28490604  0.10818313     0.76400
O819        O  0.69250487  0.16809207  0.11243426    -0.57000
O820        O  0.66592395  0.27859219  0.07367018    -0.47100
O821        O  0.70626212  0.19772310  0.05871272    -0.53500
C822        C  0.62478963  0.15466777  0.02897706     0.86600
O823        O  0.57164969  0.21747292  0.08657168    -0.55400
O824        O  0.66375583  0.25579865  0.13051068    -0.58700
In825      In  0.70745031  0.15888714  0.64496123     1.36900
C826        C  0.66779662  0.23207657  0.64658433     0.79000
O827        O  0.64263338  0.14573885  0.66561305    -0.59400
O828        O  0.69276806  0.13886823  0.70685329    -0.50300
C829        C  0.69402342  0.08450326  0.61304857     0.71700
O830        O  0.68192054  0.11948262  0.59819925    -0.45200
C831        C  0.78083911  0.19472938  0.62080410     0.76400
O832        O  0.66550959  0.20800892  0.61764817    -0.57000
O833        O  0.77518284  0.18421400  0.65537591    -0.47100
O834        O  0.69383284  0.22079447  0.67216733    -0.53500
C835        C  0.65252511  0.13841436  0.69976258     0.86600
O836        O  0.71698719  0.08762146  0.64267796    -0.55400
O837        O  0.75245586  0.18054427  0.59853893    -0.58700
C838        C  0.54027944  0.20102808  0.77168039     0.31500
C839        C  0.57073507  0.14698074  0.82462429     0.31500
C840        C  0.56010835  0.16035681  0.75540446    -0.04700
C841        C  0.57483038  0.21860784  0.79816979    -0.05500
C842        C  0.00661973  0.19636112  0.80246746    -0.05400
C843        C  0.58031411  0.13396462  0.78249021    -0.04700
C844        C  0.58921902  0.19199886  0.82669849    -0.05500
C845        C  0.52145924  0.15571070  0.82633881    -0.05400
C846        C  0.61915377  0.12226262  0.76469995    -0.30800
N847        N  0.61887709  0.13560775  0.72781813     0.15700
C848        C  0.58192957  0.15703141  0.72214931    -0.30800
H849        H  0.57434492  0.17497744  0.69675592     0.17700
C850        C  0.62139703  0.21354216  0.84588224    -0.29800
N851        N  0.62875838  0.25055712  0.82680406     0.14400
C852        C  0.60180213  0.25289648  0.79703326    -0.29800
C853        C  0.98750804  0.16873089  0.85752037    -0.30000
N854        N  0.95614417  0.19624826  0.84540130     0.15000
H855        H  0.98747327  0.15217143  0.88451588     0.17600
C856        C  0.96765294  0.21294355  0.81181129    -0.30100
H857        H  0.94986959  0.23718198  0.79637326     0.17600
H858        H  0.60396252  0.27625319  0.77462986     0.17600
H859        H  0.64709896  0.10940907  0.77893405     0.17700
H860        H  0.63881572  0.20290456  0.87060344     0.17600
C861        C  0.53957613  0.30374038  0.70455578     0.31500
C862        C  0.56731836  0.36017913  0.65225754     0.31500
C863        C  0.55321261  0.34702538  0.72120786    -0.04700
C864        C  0.57812912  0.29003767  0.68079399    -0.05500
C865        C  0.00686580  0.32925274  0.68020163    -0.05400
C866        C  0.57237167  0.37503892  0.69448784    -0.04700
C867        C  0.59116256  0.31769430  0.65249605    -0.05500
C868        C  0.51979638  0.34535579  0.64807933    -0.05400
C869        C  0.60936024  0.39007142  0.71336701    -0.30800
N870        N  0.60896029  0.37687504  0.75023737     0.15700
C871        C  0.57358220  0.35267984  0.75507298    -0.30800
H872        H  0.56656394  0.33457508  0.78048849     0.17700
C873        C  0.62595114  0.29921221  0.63458267    -0.29800
N874        N  0.63614341  0.26341906  0.65437268     0.14400
C875        C  0.60811001  0.25845354  0.68316138    -0.29800
C876        C  0.99127061  0.35299227  0.62294748    -0.30000
N877        N  0.95870385  0.32714119  0.63522225     0.15000
H878        H  0.99354357  0.36648159  0.59472043     0.17600
C879        C  0.96821499  0.31254705  0.66997549    -0.30100
H880        H  0.95004414  0.28838340  0.68517241     0.17600
H881        H  0.61064836  0.23457190  0.70509842     0.17600
H882        H  0.63682301  0.40473667  0.69975486     0.17700
H883        H  0.64252206  0.31063963  0.60966496     0.17600
In884      In  0.69749571  0.35765000  0.83407545     1.36900
C885        C  0.65920721  0.28336250  0.83399219     0.79000
O886        O  0.63235929  0.37000844  0.81299840    -0.59400
O887        O  0.68261062  0.37595867  0.77183277    -0.50300
C888        C  0.68354518  0.43150136  0.86683871     0.71700
O889        O  0.67284788  0.39605235  0.88162755    -0.45200
C890        C  0.77262598  0.32459269  0.85756826     0.76400
O891        O  0.65596886  0.30833039  0.86223411    -0.57000
O892        O  0.76616979  0.33483780  0.82305222    -0.47100
O893        O  0.68519387  0.29461033  0.80836905    -0.53500
C894        C  0.64232789  0.37616958  0.77869242     0.86600
O895        O  0.70510082  0.42935793  0.83633941    -0.55400
O896        O  0.74370795  0.33726568  0.87997561    -0.58700
C897        C  0.52611843  0.23518859  0.74624520    -0.11800
C898        C  0.52621011  0.26867219  0.72936267    -0.13400
C899        C  0.60963127  0.09627609  0.87459083    -0.11800
C900        C  0.58863299  0.11698948  0.85248265    -0.13400
C901        C  0.73200110  0.03853065  0.97931477    -0.11800
C902        C  0.76548557  0.03853571  0.99616013    -0.13400
C903        C  0.88377240  0.10124218  0.10217177    -0.11800
C904        C  0.90443282  0.12220905  0.12433581    -0.13400
C905        C  0.96239583  0.27768285  0.24625065    -0.11800
C906        C  0.96230262  0.24419671  0.22938064    -0.13400
C907        C  0.87884608  0.41663610  0.37451972    -0.11800
C908        C  0.89984451  0.39592646  0.35241200    -0.13400
C909        C  0.58410590  0.39072163  0.62432729    -0.11800
C910        C  0.60476991  0.41173552  0.60218675    -0.13400
C911        C  0.72312319  0.47449731  0.49620083    -0.11800
C912        C  0.75661629  0.47443413  0.47935805    -0.13400
In913      In  0.84166763  0.79324412  0.58363236     1.36900
C914        C  0.76855586  0.83295603  0.58185812     0.79000
O915        O  0.85479126  0.85809641  0.56290596    -0.59400
O916        O  0.86163721  0.80785142  0.52172765    -0.50300
C917        C  0.91610748  0.80666828  0.61535852     0.71700
O918        O  0.88119135  0.81862586  0.63037692    -0.45200
C919        C  0.80589191  0.71981479  0.60790915     0.76400
O920        O  0.79254828  0.83527904  0.61083471    -0.57000
O921        O  0.81651359  0.72537854  0.57335128    -0.47100
O922        O  0.77987691  0.80686688  0.55631962    -0.53500
C923        C  0.86211202  0.84813625  0.52876567     0.86600
O924        O  0.91290742  0.78382903  0.58565723    -0.55400
O925        O  0.81988353  0.74835547  0.63012900    -0.58700
C926        C  0.69696446  0.96114631  0.52361701     0.31500
C927        C  0.64044448  0.93335438  0.57580721     0.31500
C928        C  0.65372970  0.94753819  0.50689160    -0.04700
C929        C  0.71059104  0.92254264  0.54738817    -0.05500
C930        C  0.67136952  0.49381732  0.54791511    -0.05400
C931        C  0.62570002  0.92831078  0.53354905    -0.04700
C932        C  0.68290213  0.90950659  0.57564728    -0.05500
C933        C  0.65524593  0.98091177  0.58002828    -0.05400
C934        C  0.61078711  0.89128254  0.51461955    -0.30800
N935        N  0.62403690  0.89175107  0.47776728     0.15700
C936        C  0.64814064  0.92721260  0.47299459    -0.30800
H937        H  0.66622749  0.93432855  0.44759711     0.17700
C938        C  0.70139361  0.87477808  0.59367279    -0.29800
N939        N  0.73723949  0.86461058  0.57398467     0.14400
C940        C  0.74221768  0.89260047  0.54514737    -0.29800
C941        C  0.64762973  0.50923538  0.60521460    -0.30000
N942        N  0.67359222  0.54178852  0.59309430     0.15000
H943        H  0.63410318  0.50687343  0.63341816     0.17600
C944        C  0.68819925  0.53237739  0.55832717    -0.30100
H945        H  0.71244567  0.55054111  0.54323761     0.17600
H946        H  0.76613076  0.89004781  0.52325814     0.17600
H947        H  0.59615900  0.86375736  0.52818828     0.17700
H948        H  0.68993557  0.85822877  0.61859523     0.17600
C949        C  0.79974728  0.96042401  0.45660085     0.31500
C950        C  0.85389604  0.92991857  0.40378632     0.31500
C951        C  0.84032916  0.94054959  0.47296755    -0.04700
C952        C  0.78224621  0.92587608  0.43005111    -0.05500
C953        C  0.80440550  0.49408784  0.42576975    -0.05400
C954        C  0.86676509  0.92030364  0.44595318    -0.04700
C955        C  0.80891637  0.91147284  0.40158739    -0.05500
C956        C  0.84520055  0.97923004  0.40203244    -0.05400
C957        C  0.87837441  0.88143448  0.46379737    -0.30800
N958        N  0.86495636  0.88175771  0.50065868     0.15700
C959        C  0.84356486  0.91875436  0.50625304    -0.30800
H960        H  0.82561178  0.92640536  0.53161488     0.17700
C961        C  0.78737977  0.87941981  0.38223641    -0.29800
N962        N  0.75027571  0.87214186  0.40114969     0.14400
C963        C  0.74787134  0.89903121  0.43097558    -0.29800
C964        C  0.83214473  0.51317976  0.37075321    -0.30000
N965        N  0.80456942  0.54454603  0.38277006     0.15000
H966        H  0.84876875  0.51320018  0.34379580     0.17600
C967        C  0.78779418  0.53304404  0.41633174    -0.30100
H968        H  0.76349721  0.55082352  0.43168880     0.17600
H969        H  0.72443896  0.89686477  0.45328475     0.17600
H970        H  0.89124730  0.85344945  0.44961303     0.17700
H971        H  0.79806713  0.86202633  0.35751605     0.17600
In972      In  0.64337493  0.80333457  0.39377353     1.36900
C973        C  0.71754506  0.84166740  0.39387273     0.79000
O974        O  0.63090274  0.86846223  0.41496857    -0.59400
O975        O  0.62522594  0.81808957  0.45607784    -0.50300
C976        C  0.56950828  0.81726518  0.36115387     0.71700
O977        O  0.60487982  0.82802930  0.34629921    -0.45200
C978        C  0.67636007  0.72816881  0.37018052     0.76400
O979        O  0.69254285  0.84503993  0.36567802    -0.57000
O980        O  0.66601988  0.73455034  0.40468240    -0.47100
O981        O  0.70639741  0.81551615  0.41941038    -0.53500
C982        C  0.62484188  0.85840955  0.44926986     0.86600
O983        O  0.57175430  0.79564227  0.39161744    -0.55400
O984        O  0.66385921  0.75721648  0.34780547    -0.58700
In985      In  0.78120735  0.65913343  0.33354756     1.36900
C986        C  0.82097306  0.73231806  0.33203182     0.79000
O987        O  0.84594074  0.64595295  0.31276204    -0.59400
O988        O  0.79570653  0.63913916  0.27161742    -0.50300
C989        C  0.79475291  0.58471219  0.36539959     0.71700
O990        O  0.80679707  0.61968930  0.38028601    -0.45200
C991        C  0.70773753  0.69488147  0.35757417     0.76400
O992        O  0.82319816  0.70820632  0.36095158    -0.57000
O993        O  0.71350752  0.68443919  0.32300910    -0.47100
O994        O  0.79493895  0.72109050  0.30643459    -0.53500
C995        C  0.83596228  0.63862955  0.27863746     0.86600
O996        O  0.77176175  0.58784680  0.33579041    -0.55400
O997        O  0.73603752  0.68064534  0.37989691    -0.60300
C998        C  0.94804411  0.70120527  0.20656798     0.31500
C999        C  0.91753302  0.64714211  0.15366758     0.31500
C1000       C  0.92829593  0.66048810  0.22287245    -0.04700
C1001       C  0.91341679  0.71874430  0.18013269    -0.05500
C1002       C  0.98153328  0.68377534  0.18017598    -0.05400
C1003       C  0.90803139  0.63409902  0.19581750    -0.04700
C1004       C  0.89901531  0.69213430  0.15161789    -0.05500
C1005       C  0.96679845  0.65593945  0.15188240    -0.05400
C1006       C  0.86920228  0.62242042  0.21365942    -0.30800
N1007       N  0.86955005  0.63576634  0.25053460     0.15700
C1008       C  0.90653620  0.65714682  0.25615335    -0.30800
H1009       H  0.91419692  0.67506247  0.28153802     0.17700
C1010       C  0.86685789  0.71367539  0.13241680    -0.29800
N1011       N  0.85949793  0.75067985  0.15148300     0.14400
C1012       C  0.88644860  0.75302242  0.18125995    -0.29800
C1013       C  0.50088180  0.66893386  0.12062659    -0.30000
N1014       N  0.53228387  0.69642444  0.13271861     0.15000
H1015       H  0.50088659  0.65236078  0.09364577     0.17600
C1016       C  0.52082254  0.71311755  0.16631731    -0.30100
H1017       H  0.53866188  0.73731506  0.18175357     0.17600
H1018       H  0.88429550  0.77637445  0.20365241     0.17600
H1019       H  0.84121706  0.60959743  0.19946166     0.17700
H1020       H  0.84947695  0.70306197  0.10766824     0.17600
C1021       C  0.94897955  0.80399861  0.27362519     0.31500
C1022       C  0.92134637  0.86052809  0.32587235     0.31500
C1023       C  0.93515755  0.84719237  0.25691611    -0.04700
C1024       C  0.91059956  0.79026042  0.29760036    -0.05500
C1025       C  0.98197789  0.81675978  0.30234771    -0.05400
C1026       C  0.91606451  0.87524122  0.28361211    -0.04700
C1027       C  0.89761726  0.81797010  0.32585650    -0.05500
C1028       C  0.96894040  0.84586614  0.32990141    -0.05400
C1029       C  0.87903149  0.89021631  0.26476517    -0.30800
N1030       N  0.87937504  0.87696895  0.22790944     0.15700
C1031       C  0.91473736  0.85277008  0.22307120    -0.30800
H1032       H  0.92173834  0.83465369  0.19766901     0.17700
C1033       C  0.86289241  0.79948315  0.34389845    -0.29800
N1034       N  0.85270942  0.76359971  0.32423949     0.14400
C1035       C  0.88066224  0.75861364  0.29539918    -0.29800
C1036       C  0.49738755  0.85317330  0.35519598    -0.30000
N1037       N  0.52994270  0.82732521  0.34293656     0.15000
H1038       H  0.49512372  0.86667211  0.38341325     0.17600
C1039       C  0.52041424  0.81269758  0.30820335    -0.30100
H1040       H  0.53856644  0.78851451  0.29303467     0.17600
H1041       H  0.87804817  0.73471780  0.27349311     0.17600
H1042       H  0.85160795  0.90492671  0.27838367     0.17700
H1043       H  0.84631070  0.81101007  0.36876698     0.17600
In1044     In  0.79083965  0.85776723  0.14406754     1.36900
C1045       C  0.82907861  0.78348697  0.14424909     0.79000
O1046       O  0.85597726  0.87010341  0.16515121    -0.59400
O1047       O  0.80572198  0.87607306  0.20630773    -0.50300
C1048       C  0.80483002  0.93167279  0.11138245     0.71700
O1049       O  0.81559060  0.89625783  0.09658701    -0.45200
C1050       C  0.71572759  0.82470113  0.12049392     0.76400
O1051       O  0.83233644  0.80841925  0.11596918    -0.57000
O1052       O  0.72214868  0.83492193  0.15501742    -0.47100
O1053       O  0.80309104  0.79476133  0.16985368    -0.53500
C1054       C  0.84600695  0.87627304  0.19945340     0.86600
O1055       O  0.78319795  0.92945964  0.14183741    -0.55400
O1056       O  0.74467207  0.83740492  0.09811339    -0.58700
In1057     In  0.84512139  0.70967332  0.89381064     1.36900
C1058       C  0.77097059  0.67132618  0.89392125     0.79000
O1059       O  0.85764214  0.64454895  0.91502865    -0.59400
O1060       O  0.86323714  0.69490727  0.95613094    -0.50300
C1061       C  0.91898974  0.69571816  0.86119761     0.71700
O1062       O  0.88362728  0.68487501  0.84638960    -0.45200
C1063       C  0.81214765  0.78482664  0.87012501     0.76400
O1064       O  0.79596700  0.66800532  0.86571209    -0.57000
O1065       O  0.82248097  0.77847568  0.90463318    -0.47100
O1066       O  0.78210640  0.69744787  0.91947158    -0.53500
C1067       C  0.86367305  0.65459034  0.94932912     0.86600
O1068       O  0.91672908  0.71743488  0.89159992    -0.55400
O1069       O  0.82463828  0.75574735  0.84778652    -0.58700
C1070       C  0.68879346  0.55251057  0.95665220     0.31500
C1071       C  0.63464658  0.58306515  0.90385353     0.31500
C1072       C  0.64823364  0.57243271  0.97302998    -0.04700
C1073       C  0.70631394  0.58703745  0.93007257    -0.05500
C1074       C  0.67117847  0.51896077  0.93037914    -0.05400
C1075       C  0.62179548  0.59268017  0.94601881    -0.04700
C1076       C  0.67964158  0.60146834  0.90162324    -0.05500
C1077       C  0.64329536  0.53374612  0.90211741    -0.05400
C1078       C  0.61016627  0.63154117  0.96384432    -0.30800
N1079       N  0.62358539  0.63122327  0.00069866     0.15700
C1080       C  0.64500109  0.59423875  0.00630371    -0.30800
H1081       H  0.66295994  0.58659977  0.03166596     0.17700
C1082       C  0.70116510  0.63355248  0.88228342    -0.29800
N1083       N  0.73826149  0.64082274  0.90119064     0.14400
C1084       C  0.74067761  0.61389591  0.93099969    -0.29800
C1085       C  0.65635638  0.99975813  0.87080188    -0.30000
N1086       N  0.68396720  0.96840182  0.88277596     0.15000
H1087       H  0.63973078  0.99976529  0.84385108     0.17600
C1088       C  0.70076296  0.97988095  0.91632651    -0.30100
H1089       H  0.72510901  0.96211906  0.93163801     0.17600
H1090       H  0.76410410  0.61605260  0.95330777     0.17600
H1091       H  0.59727352  0.65951569  0.94965359     0.17700
H1092       H  0.69047044  0.65097551  0.85757942     0.17600
C1093       C  0.79156043  0.55180168  0.02366834     0.31500
C1094       C  0.84802735  0.57959679  0.07587417     0.31500
C1095       C  0.83481067  0.56541901  0.00695551    -0.04700
C1096       C  0.77790457  0.59040257  0.04742064    -0.05500
C1097       C  0.80413414  0.51891918  0.05259575    -0.05400
C1098       C  0.86281004  0.58465128  0.03361869    -0.04700
C1099       C  0.80556443  0.60343546  0.07568790    -0.05500
C1100       C  0.83323203  0.53203618  0.08010500    -0.05400
C1101       C  0.87771880  0.62169442  0.01468499    -0.30800
N1102       N  0.86449678  0.62123296  0.97782892     0.15700
C1103       C  0.84042258  0.58575647  0.97305659    -0.30800
H1104       H  0.82235343  0.57864100  0.94765353     0.17700
C1105       C  0.78707566  0.63818788  0.09366767    -0.29800
N1106       N  0.75127468  0.64838703  0.07393735     0.14400
C1107       C  0.74631657  0.62038534  0.04511909    -0.29800
C1108       C  0.84084594  0.00377781  0.10521527    -0.30000
N1109       N  0.81488551  0.97123693  0.09308965     0.15000
H1110       H  0.85435820  0.00611919  0.13341947     0.17600
C1111       C  0.80031060  0.98066530  0.05831734    -0.30100
H1112       H  0.77608505  0.96250531  0.04321501     0.17600
H1113       H  0.72244376  0.62295345  0.02320201     0.17600
H1114       H  0.89231383  0.64922414  0.02825337     0.17700
H1115       H  0.79850586  0.65473149  0.11859109     0.17600
In1116     In  0.64683967  0.71976104  0.08359650     1.36900
C1117       C  0.71995732  0.68004921  0.08179185     0.79000
O1118       O  0.63368759  0.65490433  0.06293066    -0.59400
O1119       O  0.62688901  0.70513532  0.02170901    -0.50300
C1120       C  0.57243924  0.70623676  0.11537695     0.71700
O1121       O  0.60737633  0.69432000  0.13037623    -0.45200
C1122       C  0.68253896  0.79323025  0.10783806     0.76400
O1123       O  0.69599865  0.67777207  0.11080130    -0.57000
O1124       O  0.67195779  0.78764813  0.07327939    -0.47100
O1125       O  0.70861243  0.70610934  0.05623096    -0.53500
C1126       C  0.62639937  0.66485307  0.02878075     0.86600
O1127       O  0.57559502  0.72908645  0.08566579    -0.55400
O1128       O  0.66853075  0.76469315  0.13007050    -0.58700
In1129     In  0.69759400  0.65520804  0.64412602     1.36900
C1130       C  0.65928156  0.72945357  0.64425457     0.79000
O1131       O  0.63245962  0.64282975  0.66521448    -0.59400
O1132       O  0.68270547  0.63685925  0.70636586    -0.50300
C1133       C  0.68364883  0.58133294  0.61140226     0.71700
O1134       O  0.67295140  0.61676750  0.59659696    -0.45200
C1135       C  0.77269867  0.68834168  0.62057224     0.76400
O1136       O  0.65603979  0.70449308  0.61600721    -0.57000
O1137       O  0.76625323  0.67811635  0.65509779    -0.47100
O1138       O  0.68527553  0.71821898  0.66986340    -0.53500
C1139       C  0.64242284  0.63665184  0.69951593     0.86600
O1140       O  0.70520840  0.58350806  0.64189080    -0.55400
O1141       O  0.74378458  0.67561890  0.59818691    -0.58700
C1142       C  0.53956751  0.70901825  0.77365378     0.31500
C1143       C  0.56722431  0.65254816  0.82595374     0.31500
C1144       C  0.55329193  0.66577286  0.75699324    -0.04700
C1145       C  0.57802451  0.72274885  0.79751693    -0.05500
C1146       C  0.00674624  0.68353829  0.79801531    -0.05400
C1147       C  0.57240768  0.63775319  0.78371279    -0.04700
C1148       C  0.59101783  0.69507385  0.82580601    -0.05500
C1149       C  0.51966166  0.66728933  0.83004787    -0.05400
C1150       C  0.60941913  0.62274458  0.76484922    -0.30800
N1151       N  0.60904907  0.63594480  0.72797677     0.15700
C1152       C  0.57368191  0.66013475  0.72313520    -0.30800
H1153       H  0.56667185  0.67822846  0.69771258     0.17700
C1154       C  0.62577653  0.71356472  0.84376747    -0.29800
N1155       N  0.63598056  0.74939585  0.82402204     0.14400
C1156       C  0.60799228  0.75436355  0.79521190    -0.29800
C1157       C  0.99110206  0.65978732  0.85526225    -0.30000
N1158       N  0.95856017  0.68564415  0.84298777     0.15000
H1159       H  0.99335244  0.64629797  0.88348939     0.17600
C1160       C  0.96809934  0.70024886  0.80824025    -0.30100
H1161       H  0.94995571  0.72442609  0.79305128     0.17600
H1162       H  0.61057267  0.77825187  0.77328154     0.17600
H1163       H  0.63686070  0.60807067  0.77846594     0.17700
H1164       H  0.64234408  0.70209551  0.86866310     0.17600
C1165       C  0.54036528  0.81179198  0.70656786     0.31500
C1166       C  0.57088569  0.86583484  0.65362643     0.31500
C1167       C  0.56017294  0.85248201  0.72284364    -0.04700
C1168       C  0.57495132  0.79422455  0.68010596    -0.05500
C1169       C  0.00670185  0.81629561  0.67565145    -0.05400
C1170       C  0.58041680  0.87887189  0.69576222    -0.04700
C1171       C  0.58937007  0.82082895  0.65157852    -0.05500
C1172       C  0.52161091  0.85707694  0.65187894    -0.05400
C1173       C  0.61924615  0.89057968  0.71356824    -0.30800
N1174       N  0.61892947  0.87723673  0.75045131     0.15700
C1175       C  0.58196469  0.85581677  0.75610461    -0.30800
H1176       H  0.57434138  0.83787787  0.78149935     0.17700
C1177       C  0.62152558  0.79927384  0.63238368    -0.29800
N1178       N  0.62884686  0.76225355  0.65145372     0.14400
C1179       C  0.60188599  0.75992057  0.68123186    -0.29800
C1180       C  0.98768121  0.84394259  0.62058610    -0.30000
N1181       N  0.95628398  0.81642751  0.63267115     0.15000
H1182       H  0.98767960  0.86054360  0.59361064     0.17600
C1183       C  0.96773318  0.79972249  0.66627252    -0.30100
H1184       H  0.94988866  0.77551881  0.68171414     0.17600
H1185       H  0.60402413  0.73656639  0.70363319     0.17600
H1186       H  0.64721031  0.90343097  0.69934401     0.17700
H1187       H  0.63894393  0.80989646  0.60764893     0.17600
In1188     In  0.70736445  0.85392837  0.83339503     1.36900
C1189       C  0.66767163  0.78071942  0.83180074     0.79000
O1190       O  0.64259594  0.86707504  0.81266679    -0.59400
O1191       O  0.69279473  0.87398816  0.77148170    -0.50300
C1192       C  0.69380281  0.92827452  0.86535554     0.71700
O1193       O  0.68167148  0.89326783  0.88015012    -0.45200
C1194       C  0.78078819  0.81812161  0.85748251     0.76400
O1195       O  0.66544474  0.80476139  0.86075580    -0.57000
O1196       O  0.77509342  0.82861909  0.82291559    -0.47100
O1197       O  0.69367352  0.79203001  0.80618928    -0.53500
C1198       C  0.65254018  0.87442645  0.77853173     0.86600
O1199       O  0.71687425  0.92520223  0.83578078    -0.55400
O1200       O  0.75243506  0.83231931  0.87977420    -0.58700
C1201       C  0.52625175  0.74411474  0.74885717    -0.11800
C1202       C  0.52618007  0.77761719  0.73199677    -0.13400
C1203       C  0.60464654  0.60101384  0.87604369    -0.11800
C1204       C  0.58398308  0.62199769  0.85388845    -0.13400
C1205       C  0.72300521  0.53834513  0.98202947    -0.11800
C1206       C  0.75647942  0.53843698  0.99889359    -0.13400
C1207       C  0.87858557  0.59643733  0.10374256    -0.11800
C1208       C  0.89959461  0.61715465  0.12583569    -0.13400
C1209       C  0.96224003  0.76887388  0.24884151    -0.11800
C1210       C  0.96224294  0.73538116  0.23197690    -0.13400
C1211       C  0.88391080  0.91202516  0.37596158    -0.11800
C1212       C  0.90459399  0.89108945  0.35378946    -0.13400
C1213       C  0.58883239  0.89581171  0.62577247    -0.11800
C1214       C  0.60985800  0.91652056  0.60367012    -0.13400
C1215       C  0.73206227  0.97450045  0.49884706    -0.11800
C1216       C  0.76554051  0.97457865  0.48198428    -0.13400
loop_ 
_geom_bond_atom_site_label_1 
_geom_bond_atom_site_label_2 
_geom_bond_distance 
_geom_bond_site_symmetry_2 
_ccdc_geom_bond_type 
In1           O3   2.187       .  S
In1           O4   2.314       .  S
In1          O12   2.241       .  S
In1           O6   2.204       .  S
In1           O8   2.231       .  S
In1           O9   2.284       .  S
In1          O10   2.195       .  S
In1          O13   2.258       .  S
C2            O8   1.268       .  A
C2           O10   1.263       .  A
C2           N27   1.415       .  S
O3           C11   1.263       .  A
O4           C11   1.279       .  A
C5           O12   1.270       .  A
C5            O6   1.266       .  A
C5          N269   1.426       .  S
C7            O9   1.274       .  A
C7           O13   1.263       .  A
C7          C223   1.493       .  S
C11          N46   1.444       .  S
C14          C16   1.531       .  S
C14          C17   1.526       .  S
C14         C322   1.497       .  S
C14         C303   1.460       .  S
C15          C19   1.567       .  S
C15          C21   1.559       .  S
C15          C20   1.518       .  S
C15         C302   1.465       .  S
C16          C24   1.363       .  A
C16          C19   1.416       .  A
C17          C28   1.360       .  A
C17          C20   1.379       .  A
C18         C318   1.500       .  S
C18          C32   1.361   1_565  A
C18         C325   1.400       .  A
C19          C22   1.411       .  A
C20          C26   1.381       .  A
C21         C322   1.389       .  A
C21         C333   1.394       .  A
C22          N23   1.363       .  A
C22          H35   1.082       .  S
N23          C70   1.445       .  S
N23          C24   1.346       .  A
C24          H25   1.081       .  S
C26          N27   1.353       .  A
C26          H36   1.079       .  S
N27          C28   1.348       .  A
C28          H34   1.076       .  S
C29         C325   1.397   1_545  A
C29          N30   1.366       .  A
C29          H31   1.082       .  S
N30         C221   1.426       .  S
N30          C32   1.340       .  A
C32          H33   1.083       .  S
C37          C39   1.522       .  S
C37          C40   1.527       .  S
C37         C345   1.500       .  S
C37         C304   1.460       .  S
C38          C42   1.568       .  S
C38          C44   1.561       .  S
C38          C43   1.517       .  S
C38         C299   1.466       .  S
C39          C47   1.359       .  A
C39          C42   1.408       .  A
C40          C51   1.359       .  A
C40          C43   1.378       .  A
C41         C341   1.497       .  S
C41          C55   1.361   1_565  A
C41         C348   1.389       .  A
C42          C45   1.412       .  A
C43          C49   1.383       .  A
C44         C345   1.400       .  A
C44         C356   1.397       .  A
C45          N46   1.365       .  A
C45          H58   1.082       .  S
N46          C47   1.346       .  A
C47          H48   1.081       .  S
C49          N50   1.354       .  A
C49          H59   1.079       .  S
N50          C61   1.417       .  S
N50          C51   1.346       .  A
C51          H57   1.075       .  S
C52         C348   1.394   1_545  A
C52          N53   1.369       .  A
C52          H54   1.082       .  S
N53          C77   1.426       .  S
N53          C55   1.342       .  A
C55          H56   1.083       .  S
In60         O62   2.197       .  S
In60         O63   2.314       .  S
In60         O71   2.247       .  S
In60         O65   2.198       .  S
In60         O67   2.239       .  S
In60         O68   2.289       .  S
In60         O69   2.196       .  S
In60         O72   2.258       .  S
C61          O67   1.267       .  A
C61          O69   1.262       .  A
O62          C70   1.263       .  A
O63          C70   1.279       .  A
C64          O71   1.269       .  A
C64          O65   1.266       .  A
C64         N125   1.425       .  S
C66          O68   1.274       .  A
C66          O72   1.262       .  A
C66          C79   1.493       .  S
In73         O75   2.186       .  S
In73         O76   2.315       .  S
In73         O84   2.241       .  S
In73         O78   2.204       .  S
In73         O80   2.232       .  S
In73         O81   2.283       .  S
In73         O82   2.195       .  S
In73         O85   2.258       .  S
C74          O80   1.268       .  A
C74          O82   1.263       .  A
C74         N122   1.415       .  S
O75          C83   1.263       .  A
O76          C83   1.279       .  A
C77          O84   1.270       .  A
C77          O78   1.266       .  A
C79          O81   1.274       .  A
C79          O85   1.263       .  A
C83          N95   1.444       .  S
C86          C88   1.522       .  S
C86          C90   1.500       .  S
C86          C89   1.527       .  S
C86         C298   1.460       .  S
C87          C91   1.568       .  S
C87          C93   1.561       .  S
C87          C92   1.518       .  S
C87         C296   1.466       .  S
C88          C96   1.359       .  A
C88          C91   1.409       .  A
C89         C100   1.360       .  A
C89          C92   1.378       .  A
C90          C93   1.399       .  A
C90         C712   1.361       .  A
C91          C94   1.411       .  A
C92          C98   1.383       .  A
C93         C709   1.397       .  A
C94          N95   1.365       .  A
C94         H107   1.082       .  S
N95          C96   1.346       .  A
C96          H97   1.081       .  S
C98          N99   1.354       .  A
C98         H108   1.079       .  S
N99         C133   1.417       .  S
N99         C100   1.346       .  A
C100        H106   1.076       .  S
C101        C701   1.394   1_455  A
C101        N102   1.369       .  A
C101        H103   1.082       .  S
N102        C208   1.426       .  S
N102        C104   1.342       .  A
C104        C698   1.361   1_455  A
C104        H105   1.083       .  S
C109        C111   1.531       .  S
C109        C113   1.497       .  S
C109        C112   1.526       .  S
C109        C297   1.460       .  S
C110        C114   1.567       .  S
C110        C116   1.559       .  S
C110        C115   1.518       .  S
C110        C300   1.466       .  S
C111        C119   1.363       .  A
C111        C114   1.415       .  A
C112        C123   1.360       .  A
C112        C115   1.379       .  A
C113        C116   1.390       .  A
C113        C735   1.361       .  A
C114        C117   1.411       .  A
C115        C121   1.381       .  A
C116        C732   1.394       .  A
C117        N118   1.363       .  A
C117        H130   1.082       .  S
N118        C142   1.445       .  S
N118        C119   1.346       .  A
C119        H120   1.081       .  S
C121        N122   1.353       .  A
C121        H131   1.079       .  S
N122        C123   1.348       .  A
C123        H129   1.076       .  S
C124        C724   1.397       .  A
C124        N125   1.366   1_655  A
C124        H126   1.082       .  S
N125        C127   1.340       .  A
C127        C721   1.361   1_455  A
C127        H128   1.083       .  S
In132       O134   2.196       .  S
In132       O135   2.314       .  S
In132       O143   2.247       .  S
In132       O137   2.198       .  S
In132       O139   2.240       .  S
In132       O140   2.289       .  S
In132       O141   2.196       .  S
In132       O144   2.258       .  S
C133        O139   1.267       .  A
C133        O141   1.263       .  A
O134        C142   1.263       .  A
O135        C142   1.279       .  A
C136        O143   1.269       .  A
C136        O137   1.266       .  A
C136        N197   1.426       .  S
C138        O140   1.274       .  A
C138        O144   1.262       .  A
C138        C210   1.493       .  S
In145       O147   2.197       .  S
In145       O148   2.314       .  S
In145       O156   2.247       .  S
In145       O150   2.198       .  S
In145       O152   2.239       .  S
In145       O153   2.289       .  S
In145       O154   2.196       .  S
In145       O157   2.258       .  S
C146        O152   1.267       .  A
C146        O154   1.263       .  A
C146        N171   1.417       .  S
O147        C155   1.263       .  A
O148        C155   1.279       .  A
C149        O156   1.269       .  A
C149        O150   1.266       .  A
C149        N246   1.425       .  S
C151        O153   1.274       .  A
C151        O157   1.262       .  A
C151        C282   1.493       .  S
C155        N190   1.445       .  S
C158        C160   1.522       .  S
C158        C162   1.501       .  S
C158        C161   1.527       .  S
C158        C293   1.460       .  S
C159        C163   1.568       .  S
C159        C165   1.561       .  S
C159        C164   1.517       .  S
C159        C291   1.466       .  S
C160        C168   1.359   1_556  A
C160        C163   1.408       .  A
C161        C172   1.359       .  A
C161        C164   1.378       .  A
C162        C165   1.400       .  A
C162        C480   1.361   1_545  A
C163        C166   1.411       .  A
C164        C170   1.383       .  A
C165        C477   1.397       .  A
C166        N167   1.365   1_556  A
C166        H179   1.082       .  S
N167        C214   1.444       .  S
N167        C168   1.346       .  A
C168        H169   1.081       .  S
C170        N171   1.354       .  A
C170        H180   1.079       .  S
N171        C172   1.346       .  A
C172        H178   1.075       .  S
C173        C469   1.394       .  A
C173        N174   1.369       .  A
C173        H175   1.082       .  S
N174        C280   1.426       .  S
N174        C176   1.342       .  A
C176        C466   1.361       .  A
C176        H177   1.083       .  S
C181        C183   1.531       .  S
C181        C185   1.497       .  S
C181        C184   1.526       .  S
C181        C294   1.460   1_554  S
C182        C186   1.567       .  S
C182        C188   1.559       .  S
C182        C187   1.518       .  S
C182        C295   1.466       .  S
C183        C191   1.363   1_554  A
C183        C186   1.416       .  A
C184        C195   1.360       .  A
C184        C187   1.379       .  A
C185        C188   1.389       .  A
C185        C503   1.361   1_545  A
C186        C189   1.411       .  A
C187        C193   1.381       .  A
C188        C500   1.394   1_545  A
C189        N190   1.363   1_554  A
C189        H202   1.082       .  S
N190        C191   1.346       .  A
C191        H192   1.081       .  S
C193        N194   1.353       .  A
C193        H203   1.079       .  S
N194        C205   1.415       .  S
N194        C195   1.348       .  A
C195        H201   1.076       .  S
C196        C492   1.397       .  A
C196        N197   1.366       .  A
C196        H198   1.082       .  S
N197        C199   1.340       .  A
C199        C489   1.361       .  A
C199        H200   1.083       .  S
In204       O206   2.186       .  S
In204       O207   2.314       .  S
In204       O215   2.241       .  S
In204       O209   2.204       .  S
In204       O211   2.231       .  S
In204       O212   2.284       .  S
In204       O213   2.195       .  S
In204       O216   2.258       .  S
C205        O211   1.268       .  A
C205        O213   1.263       .  A
O206        C214   1.263       .  A
O207        C214   1.279       .  A
C208        O215   1.270       .  A
C208        O209   1.266       .  A
C210        O212   1.274       .  A
C210        O216   1.263       .  A
In217       O219   2.196       .  S
In217       O220   2.314       .  S
In217       O228   2.248       .  S
In217       O222   2.198       .  S
In217       O224   2.240       .  S
In217       O225   2.289       .  S
In217       O226   2.196       .  S
In217       O229   2.258       .  S
C218        O224   1.267       .  A
C218        O226   1.263       .  A
C218        N266   1.417       .  S
O219        C227   1.263       .  A
O220        C227   1.279       .  A
C221        O228   1.269       .  A
C221        O222   1.266       .  A
C223        O225   1.274       .  A
C223        O229   1.262       .  A
C227        N239   1.445       .  S
C230        C232   1.531       .  S
C230        C233   1.526       .  S
C230        C842   1.497       .  S
C230        C289   1.460       .  S
C231        C235   1.567       .  S
C231        C237   1.559       .  S
C231        C236   1.518       .  S
C231        C292   1.466       .  S
C232        C240   1.363       .  A
C232        C235   1.416       .  A
C233        C244   1.360       .  A
C233        C236   1.379       .  A
C234        C838   1.500       .  S
C234        C248   1.361       .  A
C234        C845   1.399       .  A
C235        C238   1.411       .  A
C236        C242   1.381       .  A
C237        C842   1.389       .  A
C237        C853   1.394   1_455  A
C238        N239   1.363       .  A
C238        H251   1.082       .  S
N239        C240   1.346       .  A
C240        H241   1.081       .  S
C242        N243   1.353       .  A
C242        H252   1.079       .  S
N243        C277   1.415       .  S
N243        C244   1.348       .  A
C244        H250   1.076       .  S
C245        C845   1.397       .  A
C245        N246   1.366       .  A
C245        H247   1.082       .  S
N246        C248   1.340       .  A
C248        H249   1.083       .  S
C253        C255   1.522       .  S
C253        C256   1.527       .  S
C253        C865   1.500       .  S
C253        C290   1.460       .  S
C254        C258   1.568       .  S
C254        C260   1.561       .  S
C254        C259   1.518       .  S
C254        C301   1.466       .  S
C255        C263   1.359       .  A
C255        C258   1.409       .  A
C256        C267   1.360       .  A
C256        C259   1.378       .  A
C257        C861   1.497       .  S
C257        C271   1.361       .  A
C257        C868   1.389       .  A
C258        C261   1.411       .  A
C259        C265   1.383       .  A
C260        C865   1.399       .  A
C260        C876   1.397   1_455  A
C261        N262   1.365       .  A
C261        H274   1.082       .  S
N262        C286   1.444       .  S
N262        C263   1.346       .  A
C263        H264   1.081       .  S
C265        N266   1.354       .  A
C265        H275   1.079       .  S
N266        C267   1.346       .  A
C267        H273   1.076       .  S
C268        C868   1.394       .  A
C268        N269   1.369       .  A
C268        H270   1.082       .  S
N269        C271   1.342       .  A
C271        H272   1.083       .  S
In276       O278   2.186       .  S
In276       O279   2.315       .  S
In276       O287   2.241       .  S
In276       O281   2.204       .  S
In276       O283   2.232       .  S
In276       O284   2.284       .  S
In276       O285   2.195       .  S
In276       O288   2.258       .  S
C277        O283   1.268       .  A
C277        O285   1.263       .  A
O278        C286   1.263       .  A
O279        C286   1.279       .  A
C280        O287   1.270       .  A
C280        O281   1.266       .  A
C282        O284   1.274       .  A
C282        O288   1.263       .  A
C289        C290   1.201       .  T
C291        C292   1.205       .  T
C293        C294   1.201       .  T
C295        C296   1.205       .  T
C297        C298   1.201       .  T
C299        C300   1.205       .  T
C301        C302   1.205       .  T
C303        C304   1.201       .  T
In305       O307   2.197       .  S
In305       O308   2.314       .  S
In305       O316   2.247       .  S
In305       O310   2.198       .  S
In305       O312   2.239       .  S
In305       O313   2.289       .  S
In305       O314   2.196       .  S
In305       O317   2.258       .  S
C306        O312   1.267       .  A
C306        O314   1.263       .  A
C306        N331   1.417       .  S
O307        C315   1.263       .  A
O308        C315   1.279       .  A
C309        O316   1.269       .  A
C309        O310   1.266       .  A
C309        N573   1.426       .  S
C311        O313   1.274       .  A
C311        O317   1.262       .  A
C311        C527   1.493       .  S
C315        N350   1.445       .  S
C318        C320   1.522       .  S
C318        C321   1.527       .  S
C318        C607   1.460       .  S
C319        C323   1.568       .  S
C319        C325   1.561       .  S
C319        C324   1.517       .  S
C319        C606   1.465       .  S
C320        C328   1.359       .  A
C320        C323   1.409       .  A
C321        C332   1.360       .  A
C321        C324   1.378       .  A
C322        C336   1.361       .  A
C323        C326   1.411       .  A
C324        C330   1.383       .  A
C326        N327   1.365       .  A
C326        H339   1.082       .  S
N327        C374   1.444       .  S
N327        C328   1.346       .  A
C328        H329   1.081       .  S
C330        N331   1.354       .  A
C330        H340   1.079       .  S
N331        C332   1.346       .  A
C332        H338   1.075       .  S
C333        N334   1.369       .  A
C333        H335   1.082       .  S
N334        C525   1.426       .  S
N334        C336   1.342       .  A
C336        H337   1.083       .  S
C341        C343   1.531       .  S
C341        C344   1.526       .  S
C341        C608   1.460       .  S
C342        C346   1.567       .  S
C342        C348   1.559       .  S
C342        C347   1.518       .  S
C342        C603   1.466       .  S
C343        C351   1.363       .  A
C343        C346   1.415       .  A
C344        C355   1.360       .  A
C344        C347   1.379       .  A
C345        C359   1.361       .  A
C346        C349   1.411       .  A
C347        C353   1.381       .  A
C349        N350   1.363       .  A
C349        H362   1.082       .  S
N350        C351   1.346       .  A
C351        H352   1.081       .  S
C353        N354   1.353       .  A
C353        H363   1.079       .  S
N354        C365   1.415       .  S
N354        C355   1.348       .  A
C355        H361   1.076       .  S
C356        N357   1.366       .  A
C356        H358   1.082       .  S
N357        C381   1.425       .  S
N357        C359   1.340       .  A
C359        H360   1.083       .  S
In364       O366   2.186       .  S
In364       O367   2.314       .  S
In364       O375   2.241       .  S
In364       O369   2.204       .  S
In364       O371   2.232       .  S
In364       O372   2.284       .  S
In364       O373   2.195       .  S
In364       O376   2.259       .  S
C365        O371   1.268       .  A
C365        O373   1.263       .  A
O366        C374   1.263       .  A
O367        C374   1.279       .  A
C368        O375   1.270       .  A
C368        O369   1.266       .  A
C368        N429   1.426       .  S
C370        O372   1.274       .  A
C370        O376   1.263       .  A
C370        C383   1.493       .  S
In377       O379   2.196       .  S
In377       O380   2.314       .  S
In377       O388   2.247       .  S
In377       O382   2.198       .  S
In377       O384   2.240       .  S
In377       O385   2.289       .  S
In377       O386   2.196       .  S
In377       O389   2.258       .  S
C378        O384   1.267       .  A
C378        O386   1.263       .  A
C378        N426   1.417       .  S
O379        C387   1.263       .  A
O380        C387   1.279       .  A
C381        O388   1.269       .  A
C381        O382   1.266       .  A
C383        O385   1.274       .  A
C383        O389   1.262       .  A
C387        N399   1.445       .  S
C390        C392   1.531       .  S
C390        C394   1.497       .  S
C390        C393   1.526       .  S
C390        C602   1.460       .  S
C391        C395   1.567       .  S
C391        C397   1.559       .  S
C391        C396   1.518       .  S
C391        C600   1.465       .  S
C392        C400   1.363       .  A
C392        C395   1.416       .  A
C393        C404   1.360       .  A
C393        C396   1.379       .  A
C394       C1016   1.361       .  A
C394        C397   1.389       .  A
C395        C398   1.411       .  A
C396        C402   1.381       .  A
C397       C1013   1.394       .  A
C398        N399   1.363       .  A
C398        H411   1.082       .  S
N399        C400   1.346       .  A
C400        H401   1.081       .  S
C402        N403   1.353       .  A
C402        H412   1.079       .  S
N403        C437   1.415       .  S
N403        C404   1.348       .  A
C404        H410   1.076       .  S
C405       C1005   1.397       .  A
C405        N406   1.366   1_655  A
C405        H407   1.082       .  S
N406        C512   1.426       .  S
N406        C408   1.340       .  A
C408       C1002   1.361   1_455  A
C408        H409   1.083       .  S
C413        C415   1.522       .  S
C413        C417   1.500       .  S
C413        C416   1.527       .  S
C413        C601   1.460       .  S
C414        C418   1.568       .  S
C414        C420   1.561       .  S
C414        C419   1.518       .  S
C414        C604   1.466       .  S
C415        C423   1.359       .  A
C415        C418   1.409       .  A
C416        C427   1.360       .  A
C416        C419   1.378       .  A
C417       C1039   1.361       .  A
C417        C420   1.399       .  A
C418        C421   1.411       .  A
C419        C425   1.383       .  A
C420       C1036   1.397       .  A
C421        N422   1.365       .  A
C421        H434   1.082       .  S
N422        C446   1.444       .  S
N422        C423   1.346       .  A
C423        H424   1.081       .  S
C425        N426   1.354       .  A
C425        H435   1.079       .  S
N426        C427   1.346       .  A
C427        H433   1.076       .  S
C428       C1028   1.394   1_455  A
C428        N429   1.369       .  A
C428        H430   1.082       .  S
N429        C431   1.342       .  A
C431       C1025   1.361   1_455  A
C431        H432   1.083       .  S
In436       O438   2.186       .  S
In436       O439   2.314       .  S
In436       O447   2.241       .  S
In436       O441   2.204       .  S
In436       O443   2.231       .  S
In436       O444   2.284       .  S
In436       O445   2.195       .  S
In436       O448   2.258       .  S
C437        O443   1.268       .  A
C437        O445   1.263       .  A
O438        C446   1.263       .  A
O439        C446   1.279       .  A
C440        O447   1.270       .  A
C440        O441   1.266       .  A
C440        N501   1.426       .  S
C442        O444   1.274       .  A
C442        O448   1.263       .  A
C442        C514   1.493       .  S
In449       O451   2.186       .  S
In449       O452   2.314       .  S
In449       O460   2.241       .  S
In449       O454   2.204       .  S
In449       O456   2.232       .  S
In449       O457   2.283       .  S
In449       O458   2.195       .  S
In449       O461   2.258       .  S
C450        O456   1.268       .  A
C450        O458   1.263       .  A
C450        N475   1.415       .  S
O451        C459   1.263       .  A
O452        C459   1.279       .  A
C453        O460   1.270       .  A
C453        O454   1.266       .  A
C453        N550   1.426       .  S
C455        O457   1.274       .  A
C455        O461   1.263       .  A
C455        C586   1.493       .  S
C459        N494   1.444       .  S
C462        C464   1.531       .  S
C462        C466   1.497       .  S
C462        C465   1.526       .  S
C462        C597   1.460       .  S
C463        C467   1.567       .  S
C463        C469   1.559       .  S
C463        C468   1.518       .  S
C463        C595   1.466       .  S
C464        C472   1.363   1_556  A
C464        C467   1.415       .  A
C465        C476   1.359       .  A
C465        C468   1.379       .  A
C466        C469   1.390       .  A
C467        C470   1.411       .  A
C468        C474   1.381       .  A
C470        N471   1.363   1_556  A
C470        H483   1.082       .  S
N471        C518   1.445       .  S
N471        C472   1.346       .  A
C472        H473   1.081       .  S
C474        N475   1.353       .  A
C474        H484   1.079       .  S
N475        C476   1.348       .  A
C476        H482   1.076       .  S
C477        N478   1.366   1_545  A
C477        H479   1.082       .  S
N478        C584   1.426       .  S
N478        C480   1.340       .  A
C480        H481   1.083       .  S
C485        C487   1.522       .  S
C485        C489   1.500       .  S
C485        C488   1.527       .  S
C485        C598   1.460   1_554  S
C486        C490   1.568       .  S
C486        C492   1.561       .  S
C486        C491   1.517       .  S
C486        C599   1.466       .  S
C487        C495   1.359   1_554  A
C487        C490   1.409       .  A
C488        C499   1.360       .  A
C488        C491   1.378       .  A
C489        C492   1.400       .  A
C490        C493   1.412       .  A
C491        C497   1.383       .  A
C493        N494   1.365   1_554  A
C493        H506   1.082       .  S
N494        C495   1.346       .  A
C495        H496   1.081       .  S
C497        N498   1.354       .  A
C497        H507   1.079       .  S
N498        C509   1.417       .  S
N498        C499   1.346       .  A
C499        H505   1.075       .  S
C500        N501   1.369       .  A
C500        H502   1.082       .  S
N501        C503   1.342       .  A
C503        H504   1.083       .  S
In508       O510   2.197       .  S
In508       O511   2.314       .  S
In508       O519   2.247       .  S
In508       O513   2.198       .  S
In508       O515   2.239       .  S
In508       O516   2.289       .  S
In508       O517   2.196       .  S
In508       O520   2.258       .  S
C509        O515   1.268       .  A
C509        O517   1.263       .  A
O510        C518   1.263       .  A
O511        C518   1.279       .  A
C512        O519   1.269       .  A
C512        O513   1.266       .  A
C514        O516   1.274       .  A
C514        O520   1.262       .  A
In521       O523   2.186       .  S
In521       O524   2.314       .  S
In521       O532   2.241       .  S
In521       O526   2.204       .  S
In521       O528   2.231       .  S
In521       O529   2.284       .  S
In521       O530   2.195       .  S
In521       O533   2.258       .  S
C522        O528   1.268       .  A
C522        O530   1.263       .  A
C522        N570   1.415       .  S
O523        C531   1.263       .  A
O524        C531   1.279       .  A
C525        O532   1.270       .  A
C525        O526   1.266       .  A
C527        O529   1.274       .  A
C527        O533   1.263       .  A
C531        N543   1.444       .  S
C534        C536   1.522       .  S
C534       C1146   1.500       .  S
C534        C537   1.527       .  S
C534        C593   1.460       .  S
C535        C539   1.568       .  S
C535        C541   1.561       .  S
C535        C540   1.518       .  S
C535        C596   1.466       .  S
C536        C544   1.359       .  A
C536        C539   1.409       .  A
C537        C548   1.360       .  A
C537        C540   1.378       .  A
C538       C1142   1.497       .  S
C538        C552   1.361       .  A
C538       C1149   1.389       .  A
C539        C542   1.411       .  A
C540        C546   1.383       .  A
C541       C1146   1.399       .  A
C541       C1157   1.397   1_455  A
C542        N543   1.365       .  A
C542        H555   1.082       .  S
N543        C544   1.346       .  A
C544        H545   1.081       .  S
C546        N547   1.354       .  A
C546        H556   1.079       .  S
N547        C581   1.417       .  S
N547        C548   1.346       .  A
C548        H554   1.076       .  S
C549       C1149   1.394       .  A
C549        N550   1.369       .  A
C549        H551   1.082       .  S
N550        C552   1.342       .  A
C552        H553   1.083       .  S
C557        C559   1.531       .  S
C557       C1169   1.497       .  S
C557        C560   1.526       .  S
C557        C594   1.460       .  S
C558        C562   1.567       .  S
C558        C564   1.559       .  S
C558        C563   1.518       .  S
C558        C605   1.465       .  S
C559        C567   1.364       .  A
C559        C562   1.416       .  A
C560        C571   1.360       .  A
C560        C563   1.379       .  A
C561       C1165   1.500       .  S
C561        C575   1.361       .  A
C561       C1172   1.399       .  A
C562        C565   1.411       .  A
C563        C569   1.381       .  A
C564       C1169   1.389       .  A
C564       C1180   1.394   1_455  A
C565        N566   1.363       .  A
C565        H578   1.082       .  S
N566        C590   1.445       .  S
N566        C567   1.346       .  A
C567        H568   1.081       .  S
C569        N570   1.353       .  A
C569        H579   1.079       .  S
N570        C571   1.348       .  A
C571        H577   1.076       .  S
C572       C1172   1.397       .  A
C572        N573   1.366       .  A
C572        H574   1.082       .  S
N573        C575   1.340       .  A
C575        H576   1.083       .  S
In580       O582   2.196       .  S
In580       O583   2.314       .  S
In580       O591   2.248       .  S
In580       O585   2.198       .  S
In580       O587   2.240       .  S
In580       O588   2.289       .  S
In580       O589   2.197       .  S
In580       O592   2.258       .  S
C581        O587   1.267       .  A
C581        O589   1.263       .  A
O582        C590   1.263       .  A
O583        C590   1.279       .  A
C584        O591   1.269       .  A
C584        O585   1.266       .  A
C586        O588   1.274       .  A
C586        O592   1.262       .  A
C593        C594   1.201       .  T
C595        C596   1.205       .  T
C597        C598   1.201       .  T
C599        C600   1.205       .  T
C601        C602   1.201       .  T
C603        C604   1.205       .  T
C605        C606   1.205       .  T
C607        C608   1.201       .  T
In609       O611   2.197       .  S
In609       O612   2.314       .  S
In609       O620   2.247       .  S
In609       O614   2.198       .  S
In609       O616   2.239       .  S
In609       O617   2.289       .  S
In609       O618   2.196       .  S
In609       O621   2.258       .  S
C610        O616   1.267       .  A
C610        O618   1.263       .  A
C610        N635   1.417       .  S
O611        C619   1.263       .  A
O612        C619   1.279       .  A
C613        O620   1.269       .  A
C613        O614   1.266       .  A
C613        N877   1.426       .  S
C615        O617   1.274       .  A
C615        O621   1.262       .  A
C615        C831   1.493       .  S
C619        N654   1.445       .  S
C622        C624   1.522       .  S
C622        C930   1.500       .  S
C622        C625   1.527       .  S
C622        C911   1.460       .  S
C623        C627   1.568       .  S
C623        C629   1.561       .  S
C623        C628   1.517       .  S
C623        C910   1.465       .  S
C624        C632   1.359       .  A
C624        C627   1.409       .  A
C625        C636   1.360       .  A
C625        C628   1.378       .  A
C626        C926   1.497       .  S
C626        C640   1.361   1_565  A
C626        C933   1.389       .  A
C627        C630   1.411       .  A
C628        C634   1.383       .  A
C629        C930   1.400       .  A
C629        C941   1.397       .  A
C630        N631   1.365       .  A
C630        H643   1.082       .  S
N631        C678   1.444       .  S
N631        C632   1.346       .  A
C632        H633   1.081       .  S
C634        N635   1.354       .  A
C634        H644   1.079       .  S
N635        C636   1.346       .  A
C636        H642   1.075       .  S
C637        C933   1.394   1_545  A
C637        N638   1.369       .  A
C637        H639   1.082       .  S
N638        C829   1.426       .  S
N638        C640   1.342       .  A
C640        H641   1.083       .  S
C645        C647   1.531       .  S
C645        C953   1.497       .  S
C645        C648   1.526       .  S
C645        C912   1.460       .  S
C646        C650   1.567       .  S
C646        C652   1.559       .  S
C646        C651   1.518       .  S
C646        C907   1.466       .  S
C647        C655   1.363       .  A
C647        C650   1.415       .  A
C648        C659   1.360       .  A
C648        C651   1.379       .  A
C649        C949   1.500       .  S
C649        C663   1.361   1_565  A
C649        C956   1.400       .  A
C650        C653   1.411       .  A
C651        C657   1.381       .  A
C652        C953   1.389       .  A
C652        C964   1.394       .  A
C653        N654   1.363       .  A
C653        H666   1.082       .  S
N654        C655   1.346       .  A
C655        H656   1.081       .  S
C657        N658   1.353       .  A
C657        H667   1.079       .  S
N658        C669   1.415       .  S
N658        C659   1.348       .  A
C659        H665   1.076       .  S
C660        C956   1.397   1_545  A
C660        N661   1.366       .  A
C660        H662   1.082       .  S
N661        C685   1.425       .  S
N661        C663   1.340       .  A
C663        H664   1.083       .  S
In668       O670   2.186       .  S
In668       O671   2.314       .  S
In668       O679   2.241       .  S
In668       O673   2.204       .  S
In668       O675   2.232       .  S
In668       O676   2.284       .  S
In668       O677   2.195       .  S
In668       O680   2.259       .  S
C669        O675   1.268       .  A
C669        O677   1.263       .  A
O670        C678   1.263       .  A
O671        C678   1.279       .  A
C672        O679   1.270       .  A
C672        O673   1.266       .  A
C672        N733   1.426       .  S
C674        O676   1.274       .  A
C674        O680   1.263       .  A
C674        C687   1.493       .  S
In681       O683   2.196       .  S
In681       O684   2.314       .  S
In681       O692   2.247       .  S
In681       O686   2.198       .  S
In681       O688   2.240       .  S
In681       O689   2.289       .  S
In681       O690   2.196       .  S
In681       O693   2.258       .  S
C682        O688   1.267       .  A
C682        O690   1.263       .  A
C682        N730   1.417       .  S
O683        C691   1.263       .  A
O684        C691   1.279       .  A
C685        O692   1.269       .  A
C685        O686   1.266       .  A
C687        O689   1.274       .  A
C687        O693   1.262       .  A
C691        N703   1.445       .  S
C694        C696   1.531       .  S
C694        C698   1.497       .  S
C694        C697   1.526       .  S
C694        C906   1.460       .  S
C695        C699   1.567       .  S
C695        C701   1.559       .  S
C695        C700   1.518       .  S
C695        C904   1.465       .  S
C696        C704   1.363       .  A
C696        C699   1.416       .  A
C697        C708   1.360       .  A
C697        C700   1.379       .  A
C698        C701   1.389       .  A
C699        C702   1.411       .  A
C700        C706   1.381       .  A
C702        N703   1.363       .  A
C702        H715   1.082       .  S
N703        C704   1.346       .  A
C704        H705   1.081       .  S
C706        N707   1.353       .  A
C706        H716   1.079       .  S
N707        C741   1.415       .  S
N707        C708   1.348       .  A
C708        H714   1.076       .  S
C709        N710   1.366       .  A
C709        H711   1.082       .  S
N710        C816   1.426       .  S
N710        C712   1.340       .  A
C712        H713   1.083       .  S
C717        C719   1.522       .  S
C717        C721   1.500       .  S
C717        C720   1.527       .  S
C717        C905   1.460       .  S
C718        C722   1.568       .  S
C718        C724   1.561       .  S
C718        C723   1.518       .  S
C718        C908   1.466       .  S
C719        C727   1.359       .  A
C719        C722   1.409       .  A
C720        C731   1.360       .  A
C720        C723   1.378       .  A
C721        C724   1.399       .  A
C722        C725   1.411       .  A
C723        C729   1.383       .  A
C725        N726   1.365       .  A
C725        H738   1.082       .  S
N726        C750   1.444       .  S
N726        C727   1.346       .  A
C727        H728   1.081       .  S
C729        N730   1.354       .  A
C729        H739   1.079       .  S
N730        C731   1.346       .  A
C731        H737   1.076       .  S
C732        N733   1.369       .  A
C732        H734   1.082       .  S
N733        C735   1.342       .  A
C735        H736   1.083       .  S
In740       O742   2.186       .  S
In740       O743   2.314       .  S
In740       O751   2.241       .  S
In740       O745   2.204       .  S
In740       O747   2.231       .  S
In740       O748   2.284       .  S
In740       O749   2.195       .  S
In740       O752   2.258       .  S
C741        O747   1.268       .  A
C741        O749   1.263       .  A
O742        C750   1.263       .  A
O743        C750   1.279       .  A
C744        O751   1.270       .  A
C744        O745   1.266       .  A
C744        N805   1.426       .  S
C746        O748   1.274       .  A
C746        O752   1.263       .  A
C746        C818   1.493       .  S
In753       O755   2.186       .  S
In753       O756   2.314       .  S
In753       O764   2.241       .  S
In753       O758   2.204       .  S
In753       O760   2.232       .  S
In753       O761   2.283       .  S
In753       O762   2.195       .  S
In753       O765   2.258       .  S
C754        O760   1.268       .  A
C754        O762   1.263       .  A
C754        N779   1.415       .  S
O755        C763   1.263       .  A
O756        C763   1.279       .  A
C757        O764   1.270       .  A
C757        O758   1.266       .  A
C757        N854   1.426       .  S
C759        O761   1.274       .  A
C759        O765   1.263       .  A
C759        C890   1.493       .  S
C763        N798   1.444       .  S
C766        C768   1.531       .  S
C766        C770   1.497       .  S
C766        C769   1.526       .  S
C766        C901   1.460       .  S
C767        C771   1.567       .  S
C767        C773   1.559       .  S
C767        C772   1.518       .  S
C767        C899   1.466       .  S
C768        C776   1.363   1_556  A
C768        C771   1.415       .  A
C769        C780   1.359       .  A
C769        C772   1.379       .  A
C770       C1088   1.361   1_545  A
C770        C773   1.390       .  A
C771        C774   1.411       .  A
C772        C778   1.381       .  A
C773       C1085   1.394   1_545  A
C774        N775   1.363   1_556  A
C774        H787   1.082       .  S
N775        C822   1.445       .  S
N775        C776   1.346       .  A
C776        H777   1.081       .  S
C778        N779   1.353       .  A
C778        H788   1.079       .  S
N779        C780   1.348       .  A
C780        H786   1.076       .  S
C781       C1077   1.397       .  A
C781        N782   1.366       .  A
C781        H783   1.082       .  S
N782        C888   1.426       .  S
N782        C784   1.340       .  A
C784       C1074   1.361       .  A
C784        H785   1.083       .  S
C789        C791   1.522       .  S
C789        C793   1.500       .  S
C789        C792   1.527       .  S
C789        C902   1.460   1_554  S
C790        C794   1.568       .  S
C790        C796   1.561       .  S
C790        C795   1.517       .  S
C790        C903   1.466       .  S
C791        C799   1.359   1_554  A
C791        C794   1.409       .  A
C792        C803   1.360       .  A
C792        C795   1.378       .  A
C793       C1111   1.361   1_545  A
C793        C796   1.400       .  A
C794        C797   1.412       .  A
C795        C801   1.383       .  A
C796       C1108   1.397       .  A
C797        N798   1.365   1_554  A
C797        H810   1.082       .  S
N798        C799   1.346       .  A
C799        H800   1.081       .  S
C801        N802   1.354       .  A
C801        H811   1.079       .  S
N802        C813   1.417       .  S
N802        C803   1.346       .  A
C803        H809   1.075       .  S
C804       C1100   1.394       .  A
C804        N805   1.369       .  A
C804        H806   1.082       .  S
N805        C807   1.342       .  A
C807       C1097   1.361       .  A
C807        H808   1.083       .  S
In812       O814   2.197       .  S
In812       O815   2.314       .  S
In812       O823   2.247       .  S
In812       O817   2.198       .  S
In812       O819   2.239       .  S
In812       O820   2.289       .  S
In812       O821   2.196       .  S
In812       O824   2.258       .  S
C813        O819   1.268       .  A
C813        O821   1.263       .  A
O814        C822   1.263       .  A
O815        C822   1.279       .  A
C816        O823   1.269       .  A
C816        O817   1.266       .  A
C818        O820   1.274       .  A
C818        O824   1.262       .  A
In825       O827   2.186       .  S
In825       O828   2.314       .  S
In825       O836   2.241       .  S
In825       O830   2.204       .  S
In825       O832   2.231       .  S
In825       O833   2.284       .  S
In825       O834   2.195       .  S
In825       O837   2.258       .  S
C826        O832   1.268       .  A
C826        O834   1.263       .  A
C826        N874   1.415       .  S
O827        C835   1.263       .  A
O828        C835   1.279       .  A
C829        O836   1.270       .  A
C829        O830   1.266       .  A
C831        O833   1.274       .  A
C831        O837   1.263       .  A
C835        N847   1.444       .  S
C838        C840   1.522       .  S
C838        C841   1.527       .  S
C838        C897   1.460       .  S
C839        C843   1.568       .  S
C839        C845   1.561       .  S
C839        C844   1.518       .  S
C839        C900   1.466       .  S
C840        C848   1.359       .  A
C840        C843   1.409       .  A
C841        C852   1.360       .  A
C841        C844   1.378       .  A
C842        C856   1.361   1_455  A
C843        C846   1.411       .  A
C844        C850   1.383       .  A
C846        N847   1.365       .  A
C846        H859   1.082       .  S
N847        C848   1.346       .  A
C848        H849   1.081       .  S
C850        N851   1.354       .  A
C850        H860   1.079       .  S
N851        C885   1.417       .  S
N851        C852   1.346       .  A
C852        H858   1.076       .  S
C853        N854   1.369       .  A
C853        H855   1.082       .  S
N854        C856   1.342       .  A
C856        H857   1.083       .  S
C861        C863   1.531       .  S
C861        C864   1.526       .  S
C861        C898   1.460       .  S
C862        C866   1.567       .  S
C862        C868   1.559       .  S
C862        C867   1.518       .  S
C862        C909   1.465       .  S
C863        C871   1.364       .  A
C863        C866   1.416       .  A
C864        C875   1.360       .  A
C864        C867   1.379       .  A
C865        C879   1.361   1_455  A
C866        C869   1.411       .  A
C867        C873   1.381       .  A
C869        N870   1.363       .  A
C869        H882   1.082       .  S
N870        C894   1.445       .  S
N870        C871   1.346       .  A
C871        H872   1.081       .  S
C873        N874   1.353       .  A
C873        H883   1.079       .  S
N874        C875   1.348       .  A
C875        H881   1.076       .  S
C876        N877   1.366       .  A
C876        H878   1.082       .  S
N877        C879   1.340       .  A
C879        H880   1.083       .  S
In884       O886   2.196       .  S
In884       O887   2.314       .  S
In884       O895   2.248       .  S
In884       O889   2.198       .  S
In884       O891   2.240       .  S
In884       O892   2.289       .  S
In884       O893   2.197       .  S
In884       O896   2.258       .  S
C885        O891   1.267       .  A
C885        O893   1.263       .  A
O886        C894   1.263       .  A
O887        C894   1.279       .  A
C888        O895   1.269       .  A
C888        O889   1.266       .  A
C890        O892   1.274       .  A
C890        O896   1.262       .  A
C897        C898   1.201       .  T
C899        C900   1.205       .  T
C901        C902   1.201       .  T
C903        C904   1.205       .  T
C905        C906   1.201       .  T
C907        C908   1.205       .  T
C909        C910   1.205       .  T
C911        C912   1.201       .  T
In913       O915   2.187       .  S
In913       O916   2.314       .  S
In913       O924   2.241       .  S
In913       O918   2.204       .  S
In913       O920   2.231       .  S
In913       O921   2.284       .  S
In913       O922   2.195       .  S
In913       O925   2.258       .  S
C914        O920   1.268       .  A
C914        O922   1.263       .  A
C914        N939   1.415       .  S
O915        C923   1.263       .  A
O916        C923   1.279       .  A
C917        O924   1.270       .  A
C917        O918   1.266       .  A
C917       N1181   1.426       .  S
C919        O921   1.274       .  A
C919        O925   1.263       .  A
C919       C1135   1.493       .  S
C923        N958   1.444       .  S
C926        C928   1.531       .  S
C926        C929   1.526       .  S
C926       C1215   1.460       .  S
C927        C931   1.567       .  S
C927        C933   1.559       .  S
C927        C932   1.518       .  S
C927       C1214   1.465       .  S
C928        C936   1.363       .  A
C928        C931   1.416       .  A
C929        C940   1.360       .  A
C929        C932   1.379       .  A
C930        C944   1.361       .  A
C931        C934   1.411       .  A
C932        C938   1.381       .  A
C934        N935   1.363       .  A
C934        H947   1.082       .  S
N935        C982   1.445       .  S
N935        C936   1.346       .  A
C936        H937   1.081       .  S
C938        N939   1.353       .  A
C938        H948   1.079       .  S
N939        C940   1.348       .  A
C940        H946   1.076       .  S
C941        N942   1.366       .  A
C941        H943   1.082       .  S
N942       C1133   1.426       .  S
N942        C944   1.340       .  A
C944        H945   1.083       .  S
C949        C951   1.522       .  S
C949        C952   1.527       .  S
C949       C1216   1.460       .  S
C950        C954   1.568       .  S
C950        C956   1.561       .  S
C950        C955   1.517       .  S
C950       C1211   1.466       .  S
C951        C959   1.359       .  A
C951        C954   1.408       .  A
C952        C963   1.359       .  A
C952        C955   1.378       .  A
C953        C967   1.361       .  A
C954        C957   1.412       .  A
C955        C961   1.383       .  A
C957        N958   1.365       .  A
C957        H970   1.082       .  S
N958        C959   1.346       .  A
C959        H960   1.081       .  S
C961        N962   1.354       .  A
C961        H971   1.079       .  S
N962        C973   1.417       .  S
N962        C963   1.346       .  A
C963        H969   1.075       .  S
C964        N965   1.369       .  A
C964        H966   1.082       .  S
N965        C989   1.426       .  S
N965        C967   1.342       .  A
C967        H968   1.083       .  S
In972       O974   2.197       .  S
In972       O975   2.314       .  S
In972       O983   2.247       .  S
In972       O977   2.198       .  S
In972       O979   2.239       .  S
In972       O980   2.289       .  S
In972       O981   2.196       .  S
In972       O984   2.258       .  S
C973        O979   1.267       .  A
C973        O981   1.262       .  A
O974        C982   1.263       .  A
O975        C982   1.279       .  A
C976        O983   1.269       .  A
C976        O977   1.266       .  A
C976       N1037   1.425       .  S
C978        O980   1.274       .  A
C978        O984   1.262       .  A
C978        C991   1.493       .  S
In985       O987   2.186       .  S
In985       O988   2.315       .  S
In985       O996   2.241       .  S
In985       O990   2.204       .  S
In985       O992   2.232       .  S
In985       O993   2.283       .  S
In985       O994   2.195       .  S
In985       O997   2.258       .  S
C986        O992   1.268       .  A
C986        O994   1.263       .  A
C986       N1034   1.415       .  S
O987        C995   1.263       .  A
O988        C995   1.279       .  A
C989        O996   1.270       .  A
C989        O990   1.266       .  A
C991        O993   1.274       .  A
C991        O997   1.263       .  A
C995       N1007   1.444       .  S
C998       C1000   1.522       .  S
C998       C1002   1.500       .  S
C998       C1001   1.527       .  S
C998       C1210   1.460       .  S
C999       C1003   1.568       .  S
C999       C1005   1.561       .  S
C999       C1004   1.518       .  S
C999       C1208   1.466       .  S
C1000      C1008   1.359       .  A
C1000      C1003   1.409       .  A
C1001      C1012   1.360       .  A
C1001      C1004   1.378       .  A
C1002      C1005   1.399       .  A
C1003      C1006   1.411       .  A
C1004      C1010   1.383       .  A
C1006      N1007   1.365       .  A
C1006      H1019   1.082       .  S
N1007      C1008   1.346       .  A
C1008      H1009   1.081       .  S
C1010      N1011   1.354       .  A
C1010      H1020   1.079       .  S
N1011      C1045   1.417       .  S
N1011      C1012   1.346       .  A
C1012      H1018   1.076       .  S
C1013      N1014   1.369       .  A
C1013      H1015   1.082       .  S
N1014      C1120   1.426       .  S
N1014      C1016   1.342       .  A
C1016      H1017   1.083       .  S
C1021      C1023   1.531       .  S
C1021      C1025   1.497       .  S
C1021      C1024   1.526       .  S
C1021      C1209   1.460       .  S
C1022      C1026   1.567       .  S
C1022      C1028   1.559       .  S
C1022      C1027   1.518       .  S
C1022      C1212   1.466       .  S
C1023      C1031   1.363       .  A
C1023      C1026   1.415       .  A
C1024      C1035   1.360       .  A
C1024      C1027   1.379       .  A
C1025      C1028   1.390       .  A
C1026      C1029   1.411       .  A
C1027      C1033   1.381       .  A
C1029      N1030   1.363       .  A
C1029      H1042   1.082       .  S
N1030      C1054   1.445       .  S
N1030      C1031   1.346       .  A
C1031      H1032   1.081       .  S
C1033      N1034   1.353       .  A
C1033      H1043   1.079       .  S
N1034      C1035   1.348       .  A
C1035      H1041   1.076       .  S
C1036      N1037   1.366       .  A
C1036      H1038   1.082       .  S
N1037      C1039   1.340       .  A
C1039      H1040   1.083       .  S
In1044     O1046   2.196       .  S
In1044     O1047   2.314       .  S
In1044     O1055   2.247       .  S
In1044     O1049   2.198       .  S
In1044     O1051   2.240       .  S
In1044     O1052   2.289       .  S
In1044     O1053   2.196       .  S
In1044     O1056   2.258       .  S
C1045      O1051   1.267       .  A
C1045      O1053   1.263       .  A
O1046      C1054   1.263       .  A
O1047      C1054   1.279       .  A
C1048      O1055   1.269       .  A
C1048      O1049   1.266       .  A
C1048      N1109   1.426       .  S
C1050      O1052   1.274       .  A
C1050      O1056   1.262       .  A
C1050      C1122   1.493       .  S
In1057     O1059   2.197       .  S
In1057     O1060   2.314       .  S
In1057     O1068   2.247       .  S
In1057     O1062   2.198       .  S
In1057     O1064   2.239       .  S
In1057     O1065   2.289       .  S
In1057     O1066   2.196       .  S
In1057     O1069   2.258       .  S
C1058      O1064   1.267       .  A
C1058      O1066   1.263       .  A
C1058      N1083   1.417       .  S
O1059      C1067   1.263       .  A
O1060      C1067   1.279       .  A
C1061      O1068   1.269       .  A
C1061      O1062   1.266       .  A
C1061      N1158   1.425       .  S
C1063      O1065   1.274       .  A
C1063      O1069   1.262       .  A
C1063      C1194   1.493       .  S
C1067      N1102   1.445       .  S
C1070      C1072   1.522       .  S
C1070      C1074   1.501       .  S
C1070      C1073   1.527       .  S
C1070      C1205   1.460       .  S
C1071      C1075   1.568       .  S
C1071      C1077   1.561       .  S
C1071      C1076   1.517       .  S
C1071      C1203   1.466       .  S
C1072      C1080   1.359   1_556  A
C1072      C1075   1.408       .  A
C1073      C1084   1.359       .  A
C1073      C1076   1.378       .  A
C1074      C1077   1.400       .  A
C1075      C1078   1.411       .  A
C1076      C1082   1.383       .  A
C1078      N1079   1.365   1_556  A
C1078      H1091   1.082       .  S
N1079      C1126   1.444       .  S
N1079      C1080   1.346       .  A
C1080      H1081   1.081       .  S
C1082      N1083   1.354       .  A
C1082      H1092   1.079       .  S
N1083      C1084   1.346       .  A
C1084      H1090   1.075       .  S
C1085      N1086   1.369       .  A
C1085      H1087   1.082       .  S
N1086      C1192   1.426       .  S
N1086      C1088   1.342       .  A
C1088      H1089   1.083       .  S
C1093      C1095   1.531       .  S
C1093      C1097   1.497       .  S
C1093      C1096   1.526       .  S
C1093      C1206   1.460   1_554  S
C1094      C1098   1.567       .  S
C1094      C1100   1.559       .  S
C1094      C1099   1.518       .  S
C1094      C1207   1.466       .  S
C1095      C1103   1.363   1_554  A
C1095      C1098   1.416       .  A
C1096      C1107   1.360       .  A
C1096      C1099   1.379       .  A
C1097      C1100   1.389       .  A
C1098      C1101   1.411       .  A
C1099      C1105   1.381       .  A
C1101      N1102   1.363   1_554  A
C1101      H1114   1.082       .  S
N1102      C1103   1.346       .  A
C1103      H1104   1.081       .  S
C1105      N1106   1.353       .  A
C1105      H1115   1.079       .  S
N1106      C1117   1.415       .  S
N1106      C1107   1.348       .  A
C1107      H1113   1.076       .  S
C1108      N1109   1.366   1_545  A
C1108      H1110   1.082       .  S
N1109      C1111   1.340       .  A
C1111      H1112   1.083       .  S
In1116     O1118   2.186       .  S
In1116     O1119   2.314       .  S
In1116     O1127   2.241       .  S
In1116     O1121   2.204       .  S
In1116     O1123   2.231       .  S
In1116     O1124   2.284       .  S
In1116     O1125   2.195       .  S
In1116     O1128   2.258       .  S
C1117      O1123   1.268       .  A
C1117      O1125   1.263       .  A
O1118      C1126   1.263       .  A
O1119      C1126   1.279       .  A
C1120      O1127   1.270       .  A
C1120      O1121   1.266       .  A
C1122      O1124   1.274       .  A
C1122      O1128   1.263       .  A
In1129     O1131   2.196       .  S
In1129     O1132   2.314       .  S
In1129     O1140   2.248       .  S
In1129     O1134   2.198       .  S
In1129     O1136   2.240       .  S
In1129     O1137   2.289       .  S
In1129     O1138   2.196       .  S
In1129     O1141   2.258       .  S
C1130      O1136   1.267       .  A
C1130      O1138   1.263       .  A
C1130      N1178   1.417       .  S
O1131      C1139   1.263       .  A
O1132      C1139   1.279       .  A
C1133      O1140   1.269       .  A
C1133      O1134   1.266       .  A
C1135      O1137   1.274       .  A
C1135      O1141   1.262       .  A
C1139      N1151   1.445       .  S
C1142      C1144   1.531       .  S
C1142      C1145   1.526       .  S
C1142      C1201   1.460       .  S
C1143      C1147   1.567       .  S
C1143      C1149   1.559       .  S
C1143      C1148   1.518       .  S
C1143      C1204   1.466       .  S
C1144      C1152   1.363       .  A
C1144      C1147   1.416       .  A
C1145      C1156   1.360       .  A
C1145      C1148   1.379       .  A
C1146      C1160   1.361   1_455  A
C1147      C1150   1.411       .  A
C1148      C1154   1.381       .  A
C1150      N1151   1.363       .  A
C1150      H1163   1.082       .  S
N1151      C1152   1.346       .  A
C1152      H1153   1.081       .  S
C1154      N1155   1.353       .  A
C1154      H1164   1.079       .  S
N1155      C1189   1.415       .  S
N1155      C1156   1.348       .  A
C1156      H1162   1.076       .  S
C1157      N1158   1.366       .  A
C1157      H1159   1.082       .  S
N1158      C1160   1.340       .  A
C1160      H1161   1.083       .  S
C1165      C1167   1.522       .  S
C1165      C1168   1.527       .  S
C1165      C1202   1.460       .  S
C1166      C1170   1.568       .  S
C1166      C1172   1.561       .  S
C1166      C1171   1.518       .  S
C1166      C1213   1.466       .  S
C1167      C1175   1.359       .  A
C1167      C1170   1.409       .  A
C1168      C1179   1.360       .  A
C1168      C1171   1.378       .  A
C1169      C1183   1.361   1_455  A
C1170      C1173   1.411       .  A
C1171      C1177   1.383       .  A
C1173      N1174   1.365       .  A
C1173      H1186   1.082       .  S
N1174      C1198   1.444       .  S
N1174      C1175   1.346       .  A
C1175      H1176   1.081       .  S
C1177      N1178   1.354       .  A
C1177      H1187   1.079       .  S
N1178      C1179   1.346       .  A
C1179      H1185   1.076       .  S
C1180      N1181   1.369       .  A
C1180      H1182   1.082       .  S
N1181      C1183   1.342       .  A
C1183      H1184   1.083       .  S
In1188     O1190   2.186       .  S
In1188     O1191   2.315       .  S
In1188     O1199   2.241       .  S
In1188     O1193   2.204       .  S
In1188     O1195   2.232       .  S
In1188     O1196   2.284       .  S
In1188     O1197   2.195       .  S
In1188     O1200   2.258       .  S
C1189      O1195   1.268       .  A
C1189      O1197   1.263       .  A
O1190      C1198   1.263       .  A
O1191      C1198   1.279       .  A
C1192      O1199   1.270       .  A
C1192      O1193   1.266       .  A
C1194      O1196   1.274       .  A
C1194      O1200   1.263       .  A
C1201      C1202   1.201       .  T
C1203      C1204   1.205       .  T
C1205      C1206   1.201       .  T
C1207      C1208   1.205       .  T
C1209      C1210   1.201       .  T
C1211      C1212   1.205       .  T
C1213      C1214   1.205       .  T
C1215      C1216   1.201       .  T
