geometry optimzed in LAMMPS
_audit_creation_date              2020-12-01 
_audit_creation_method            'lammps2cif' 
_symmetry_space_group_name_H-M    'P1' 
_symmetry_Int_Tables_number       1 
_symmetry_cell_setting            triclinic 
loop_ 
_symmetry_equiv_pos_as_xyz 
  x,y,z 
_cell_length_a                    51.36305294 
_cell_length_b                    47.329131449974064 
_cell_length_c                    94.11136354587595 
_cell_angle_alpha                 91.63591502868064 
_cell_angle_beta                  89.95508548553043 
_cell_angle_gamma                 118.40517053299241 
loop_ 
_atom_site_label 
_atom_site_type_symbol 
_atom_site_fract_x 
_atom_site_fract_y 
_atom_site_fract_z 
_atom_site_charge 
C1          C  0.04313725  0.17926517  0.09607483     0.03200
C2          C  0.04603974  0.15894635  0.08584547    -0.12900
C3          C  0.02165617  0.13727186  0.07762206     0.00700
C4          C  0.99394824  0.13559305  0.07968987    -0.11500
C5          C  0.99073738  0.15633624  0.08964629     0.03200
C6          C  0.01550096  0.17820138  0.09783673    -0.10900
H7          H  0.06743911  0.16014232  0.08420041     0.08800
H8          H  0.47885880  0.11451471  0.07422996     0.06300
H9          H  0.01321485  0.19420118  0.10560176     0.06200
C10         C  0.36363506  0.34530621  0.05311389     0.03200
C11         C  0.34213793  0.35081265  0.05999596    -0.12900
C12         C  0.32047889  0.32669970  0.06812107     0.00700
C13         C  0.32054042  0.29735201  0.06925023    -0.11500
C14         C  0.34384353  0.29314006  0.06373869     0.03200
C15         C  0.36458278  0.31656655  0.05506595    -0.10900
H16         H  0.34317245  0.37419134  0.05962308     0.08800
H17         H  0.30453822  0.27933053  0.07605617     0.06300
H18         H  0.38287379  0.31373851  0.05082759     0.06200
C19         C  0.16905176  0.51729242  0.09666235     0.03200
C20         C  0.19886575  0.04516653  0.09665085    -0.12900
C21         C  0.21709292  0.04429750  0.10749926     0.00700
C22         C  0.20676052  0.01739152  0.11594146    -0.11500
C23         C  0.17685889  0.49172147  0.11713542     0.03200
C24         C  0.15838061  0.49209634  0.10619692    -0.10900
H25         H  0.20722740  0.06561304  0.08980464     0.08800
H26         H  0.22126402  0.01617268  0.12398739     0.06300
H27         H  0.13648157  0.47184738  0.10454063     0.06200
C28         C  0.38436699  0.16144289  0.09114726     0.80300
N29         N  0.38374961  0.18708472  0.08533163    -0.78000
C30         C  0.35929937  0.19081120  0.08629659     0.82700
N31         N  0.33526072  0.16885618  0.09301131    -0.78000
C32         C  0.33498177  0.14265209  0.09856669     0.82800
N33         N  0.35966145  0.13888470  0.09759675    -0.79700
C34         C  0.42582687  0.99690006  0.88580440     0.03200
C35         C  0.39578661  0.48102666  0.88742379    -0.12900
C36         C  0.39206086  0.45530419  0.89575403     0.00700
C37         C  0.41391102  0.45993910  0.90579848    -0.11500
C38         C  0.43879215  0.49004875  0.90788137     0.03200
C39         C  0.44791285  0.00091702  0.89571779    -0.10900
H40         H  0.37860919  0.47777783  0.87985316     0.08800
H41         H  0.41066331  0.44062789  0.91272003     0.06300
H42         H  0.46729228  0.02416463  0.89735644     0.06200
C43         C  0.24610562  0.12224634  0.94116083     0.03200
C44         C  0.26284190  0.11358474  0.93200976    -0.12900
C45         C  0.28216690  0.13576356  0.92249363     0.00700
C46         C  0.28449766  0.16645994  0.92195282    -0.11500
C47         C  0.26724026  0.17508160  0.93074693     0.03200
C48         C  0.24842462  0.15297713  0.94050329    -0.10900
H49         H  0.26047852  0.08957828  0.93211438     0.08800
H50         H  0.29828058  0.18278971  0.91396380     0.06300
H51         H  0.23444256  0.15912514  0.94711035     0.06200
C52         C  0.23249723  0.31639429  0.91221729     0.80300
N53         N  0.23405284  0.28986800  0.91617214    -0.78000
C54         C  0.25989429  0.28858723  0.91528151     0.82700
N55         N  0.28432375  0.31427265  0.91030491    -0.78000
C56         C  0.28305350  0.34094752  0.90624580     0.82800
N57         N  0.25708829  0.34175466  0.90731121    -0.79700
C58         C  0.09336523  0.34806526  0.92450924     0.03200
C59         C  0.07181426  0.32966407  0.91416278    -0.12900
C60         C  0.07638826  0.30936341  0.90451354     0.00700
C61         C  0.10279128  0.30766199  0.90518922    -0.11500
C62         C  0.12462556  0.32592940  0.91540237     0.03200
C63         C  0.11981462  0.34608918  0.92509381    -0.10900
H64         H  0.05128944  0.33089209  0.91371294     0.08800
H65         H  0.10628256  0.29183332  0.89779979     0.06300
H66         H  0.13657274  0.36016244  0.93306134     0.06200
Zr67       Zr  0.03854453  0.49110496  0.02772226     2.17500
O68         O  0.02051221  0.46098224  0.04940170    -0.51300
O69         O  0.03528180  0.03327269  0.03706729    -0.74500
O70         O  0.07780222  0.50103196  0.04498805    -0.81200
O71         O  0.46194808  0.44381122  0.01045486    -0.83000
O72         O  0.12197152  0.02350558  0.03138872    -0.78600
O73         O  0.48850107  0.44925540  0.03057969    -0.90200
O74         O  0.04771782  0.07345435  0.02160590    -0.76200
O75         O  0.07859666  0.03647445  0.01671488    -0.85700
O76         O  0.01867042  0.51248131  0.01074861    -0.85400
O77         O  0.07061086  0.47215675  0.01753557    -0.72100
O78         O  0.01470774  0.44958960  0.00973704    -0.84300
Zr79       Zr  0.06751155  0.49832016  0.97301771     2.26400
Zr80       Zr  0.11199242  0.02013945  0.00627483     2.06300
Zr81       Zr  0.49762690  0.46969082  0.99211385     2.10000
Zr82       Zr  0.05776500  0.05514927  0.99915850     1.78800
O83         O  0.45835628  0.41971343  0.98186102    -0.93100
O84         O  0.10197016  0.10599344  0.00452505    -0.40900
O85         O  0.03604111  0.01380229  0.98105347    -0.77500
O86         O  0.09216849  0.04042516  0.98869497    -0.96200
O87         O  0.08775261  0.47784112  0.99005786    -0.89500
O88         O  0.02649672  0.45189100  0.98183517    -0.92400
C89         C  0.03970103  0.06132911  0.03384132     1.01400
C90         C  0.46404081  0.43821188  0.02352647     1.14300
C91         C  0.10582706  0.51091198  0.04458560     1.05100
O92         O  0.15157156  0.07351102  0.01291178    -0.94500
O93         O  0.14772759  0.04138181  0.98748680    -0.90300
O94         O  0.12243045  0.02472383  0.96648837    -0.83400
C95         C  0.14643303  0.03957488  0.97386229     1.11700
O96         O  0.03037074  0.39168129  0.01730720    -0.96500
Zr97       Zr  0.04694101  0.43190077  0.99911739     1.88900
O98         O  0.06914052  0.45304452  0.96071319    -0.73100
O99         O  0.14498497  0.49744024  0.01003275    -0.52400
O100        O  0.08510830  0.41812752  0.00602344    -0.97100
O101        O  0.00318427  0.38143644  0.99265296    -0.54300
O102        O  0.06164725  0.41602733  0.97720149    -0.73700
C103        C  0.06784281  0.42658804  0.96459322     0.98700
O104        O  0.08096097  0.02855574  0.94997776    -0.62500
O105        O  0.46564832  0.49461079  0.99350043    -0.57300
O106        O  0.02998569  0.49235452  0.95580673    -0.94000
O107        O  0.49044195  0.48055270  0.96793203    -0.92400
O108        O  0.01841194  0.06843612  0.99414431    -0.92700
O109        O  0.07014518  0.09256758  0.97991110    -0.91500
C110        C  0.00314379  0.48717666  0.95653985     1.17500
H111        H  0.00432225  0.51777185  0.01493601     0.33500
H112        H  0.10762297  0.05928833  0.98446874     0.44300
H113        H  0.01614404  0.43628396  0.97439267     0.37900
H114        H  0.07762603  0.46304273  0.02468729     0.34300
H115        H  0.09458272  0.12164758  0.00627077     0.26100
H116        H  0.16288381  0.01245854  0.01147942     0.32100
H117        H  0.10246466  0.43187294  0.00024641     0.38000
H118        H  0.00951580  0.05700581  0.98500655     0.32400
H119        H  0.47590869  0.51435369  0.98797655     0.31300
H120        H  0.44101766  0.42346145  0.98110826     0.33000
H121        H  0.00637816  0.37620405  0.98276467     0.32000
H122        H  0.06936629  0.07978298  0.97125218     0.36000
H123        H  0.09501071  0.05087749  0.95308953     0.28700
H124        H  0.02749047  0.47719755  0.05733603     0.32900
H125        H  0.02252707  0.40035768  0.02489021     0.35800
H126        H  0.44798441  0.48028490  0.98764598     0.28400
H127        H  0.09262757  0.02142350  0.94390351     0.41300
H128        H  0.14932230  0.08804628  0.00624261     0.31300
H129        H  0.10875113  0.10330836  0.01399094     0.38900
H130        H  0.98703134  0.38711746  0.99187546     0.30800
H131        H  0.13645900  0.48094348  0.01733303     0.30800
H132        H  0.03162962  0.44886265  0.05048209     0.31100
C133        C  0.37640544  0.35857105  0.77843989     0.03200
C134        C  0.35660703  0.35673751  0.76764853    -0.12900
C135        C  0.36253489  0.38415596  0.75997673     0.00700
C136        C  0.38772187  0.41325593  0.76332599    -0.11500
C137        C  0.40794854  0.41530629  0.77374562     0.03200
C138        C  0.40200529  0.38797505  0.78140069    -0.10900
H139        H  0.33734871  0.33401046  0.76492372     0.08800
H140        H  0.39270877  0.43386217  0.75692279     0.06300
H141        H  0.41797840  0.38922172  0.78925222     0.06200
C142        C  0.19668444  0.00603609  0.74635011     0.03200
C143        C  0.21972015  0.02647532  0.75572728    -0.12900
C144        C  0.21547855  0.04652110  0.76568427     0.00700
C145        C  0.18829031  0.04651699  0.76606344    -0.11500
C146        C  0.16522249  0.02675703  0.75668889     0.03200
C147        C  0.16935978  0.00624371  0.74695725    -0.10900
H148        H  0.24110962  0.02723241  0.75514401     0.08800
H149        H  0.18527085  0.06258711  0.77350923     0.06300
H150        H  0.15159885  0.99110879  0.73961801     0.06200
C151        C  0.05854159  0.23931229  0.72470951     0.03200
C152        C  0.04256799  0.24932934  0.73384247    -0.12900
C153        C  0.02347077  0.22826076  0.74381042     0.00700
C154        C  0.02046276  0.19745067  0.74474728    -0.11500
C155        C  0.03597348  0.18694838  0.73571739     0.03200
C156        C  0.05480748  0.20796124  0.72560538    -0.10900
H157        H  0.04523056  0.27340094  0.73334765     0.08800
H158        H  0.49976454  0.17345694  0.74851021     0.06300
H159        H  0.06750151  0.20036071  0.71880323     0.06200
C160        C  0.05944434  0.04076005  0.75861757     0.80300
N161        N  0.03469662  0.01859132  0.76500975    -0.78000
C162        C  0.01016586  0.02249296  0.76586982     0.82700
N163        N  0.01051147  0.04861117  0.76007335    -0.78000
C164        C  0.03495142  0.07079156  0.75351273     0.82800
N165        N  0.05934470  0.06670943  0.75288535    -0.79700
Zr166      Zr  0.38637504  0.18652952  0.80648985     2.17500
O167        O  0.38201725  0.17670080  0.78080918    -0.51300
O168        O  0.37739050  0.23146114  0.80176463    -0.74500
O169        O  0.33606202  0.15090480  0.79817228    -0.81200
O170        O  0.47089230  0.22506038  0.80269601    -0.83000
O171        O  0.30774436  0.12428967  0.81674563    -0.78600
O172        O  0.42769287  0.20823519  0.79047795    -0.90200
O173        O  0.38481992  0.26047362  0.82229078    -0.76200
O174        O  0.35888483  0.18933665  0.82632422    -0.85700
O175        O  0.42143015  0.22986064  0.82115168    -0.85400
O176        O  0.36708951  0.13466041  0.81686721    -0.72100
O177        O  0.42413958  0.17254605  0.81240758    -0.84300
Zr178      Zr  0.41222994  0.16703831  0.85820342     2.26400
Zr179      Zr  0.34058250  0.13828563  0.83729805     2.06300
Zr180      Zr  0.45855761  0.21546082  0.82765311     2.10000
Zr181      Zr  0.39408723  0.23224577  0.84107311     1.78800
O182        O  0.50027398  0.20501217  0.82432147    -0.93100
O183        O  0.34954169  0.23499538  0.84787993    -0.40900
O184        O  0.43189022  0.21901881  0.84791245    -0.77500
O185        O  0.37473890  0.18181150  0.85235476    -0.96200
O186        O  0.37769448  0.12371475  0.84356732    -0.89500
O187        O  0.43995513  0.16432692  0.83850319    -0.92400
C188        C  0.37882567  0.25563746  0.80893972     1.01400
C189        C  0.45593547  0.22036739  0.79112071     1.14300
C190        C  0.31142341  0.13060410  0.80349157     1.05100
O191        O  0.29968128  0.14798560  0.84405608    -0.94500
O192        O  0.32822032  0.12378859  0.86201915    -0.90300
O193        O  0.37159045  0.14444073  0.87439415    -0.83400
C194        C  0.34329367  0.13006450  0.87367185     1.11700
O195        O  0.40168172  0.09907236  0.79957241    -0.96500
Zr196      Zr  0.40502260  0.12185314  0.82348556     1.88900
O197        O  0.42182985  0.12221008  0.86233548    -0.73100
O198        O  0.30897582  0.08017769  0.83693633    -0.52400
O199        O  0.36410772  0.06732951  0.82096855    -0.97100
O200        O  0.45009370  0.12057237  0.81631068    -0.54300
O201        O  0.41285867  0.09246335  0.84194116    -0.73700
C202        C  0.41938503  0.09752241  0.85519948     0.98700
O203        O  0.41718579  0.17117866  0.88408221    -0.62500
O204        O  0.48924918  0.27303478  0.82478835    -0.57300
O205        O  0.46065575  0.20657160  0.86688944    -0.94000
O206        O  0.49007409  0.23451598  0.84885799    -0.92400
O207        O  0.43273987  0.28772682  0.84442148    -0.92700
O208        O  0.39726596  0.25253599  0.86544760    -0.91500
C209        C  0.48523879  0.22803357  0.86206281     1.17500
H210        H  0.43030343  0.24988548  0.81614692     0.33500
H211        H  0.36495218  0.18421977  0.86072645     0.44300
H212        H  0.45590556  0.16051279  0.84150072     0.37900
H213        H  0.35420056  0.11765604  0.81034024     0.34300
H214        H  0.35428635  0.25756075  0.84635968     0.26100
H215        H  0.28940056  0.07717182  0.84002658     0.32100
H216        H  0.35414419  0.06307952  0.83027449     0.38000
H217        H  0.42210796  0.30054816  0.84438696     0.32400
H218        H  0.98900654  0.28878208  0.83905188     0.31300
H219        H  0.02023570  0.23982304  0.82662751     0.33000
H220        H  0.46068176  0.12168903  0.82526727     0.32000
H221        H  0.40168328  0.23816739  0.87126142     0.36000
H222        H  0.43512451  0.16945535  0.88651499     0.28700
H223        H  0.36695924  0.18251461  0.77746812     0.32900
H224        H  0.40351501  0.07936441  0.80078547     0.35800
H225        H  0.50986217  0.27679799  0.82574621     0.28400
H226        H  0.42184586  0.19346822  0.88680288     0.41300
H227        H  0.30792074  0.16478853  0.85172279     0.31300
H228        H  0.33473070  0.22242922  0.84035704     0.38900
H229        H  0.46232683  0.14161256  0.81197295     0.30800
H230        H  0.30603065  0.07327016  0.82676229     0.30800
H231        H  0.37309328  0.15310744  0.77930590     0.31100
C232        C  0.25232708  0.19174558  0.56259562     0.03200
C233        C  0.27991108  0.19319403  0.56005050    -0.12900
C234        C  0.30513840  0.21435865  0.56807547     0.00700
C235        C  0.30268180  0.23471258  0.57850362    -0.11500
C236        C  0.27526870  0.23325830  0.58118706     0.03200
C237        C  0.25013950  0.21171249  0.57330924    -0.10900
H238        H  0.28163734  0.17741056  0.55197551     0.08800
H239        H  0.32179823  0.25073844  0.58496532     0.06300
H240        H  0.22895954  0.21061380  0.57549839     0.06200
C241        C  0.12925646  0.34718467  0.56933068     0.03200
C242        C  0.10093537  0.32151156  0.56627010    -0.12900
C243        C  0.08296514  0.32360263  0.55556730     0.00700
C244        C  0.09408321  0.35098502  0.54736088    -0.11500
C245        C  0.12252196  0.37670506  0.55009106     0.03200
C246        C  0.13989743  0.37484111  0.56116756    -0.10900
H247        H  0.09219508  0.30045793  0.57274767     0.08800
H248        H  0.08005482  0.35290215  0.53926322     0.06300
H249        H  0.16114083  0.39540190  0.56375619     0.06200
C250        C  0.43215416  0.02474503  0.60989869     0.03200
C251        C  0.43095878  0.05347874  0.60797851    -0.12900
C252        C  0.44889513  0.07525414  0.59786002     0.00700
C253        C  0.46878728  0.06854459  0.59013967    -0.11500
C254        C  0.47025373  0.04012719  0.59201338     0.03200
C255        C  0.45179035  0.01814179  0.60186049    -0.10900
H256        H  0.41516020  0.05809863  0.61386305     0.08800
H257        H  0.98477931  0.08743406  0.58548045     0.06300
H258        H  0.45287239  0.49105346  0.59962590     0.06200
C259        C  0.41592940  0.21049160  0.56744933     0.80300
N260        N  0.41612573  0.18520690  0.57396911    -0.78000
C261        C  0.44163972  0.18348103  0.57530448     0.82700
N262        N  0.46667204  0.20685438  0.56979241    -0.78000
C263        C  0.46703873  0.23201136  0.56317451     0.82800
N264        N  0.44160258  0.23412596  0.56218019    -0.79700
Zr265      Zr  0.23253429  0.36556390  0.69257123     2.17500
O266        O  0.21517979  0.32873524  0.71222980    -0.51300
O267        O  0.22783880  0.40800367  0.70567719    -0.74500
O268        O  0.27111647  0.37624540  0.71008289    -0.81200
O269        O  0.15432939  0.32019439  0.67638002    -0.83000
O270        O  0.31425910  0.39439936  0.69818878    -0.78600
O271        O  0.18038513  0.33444410  0.69725512    -0.90200
O272        O  0.23627289  0.44699325  0.69004264    -0.76200
O273        O  0.27223346  0.41392791  0.68432026    -0.85700
O274        O  0.21096043  0.38602240  0.67611541    -0.85400
O275        O  0.26579052  0.34900242  0.68185489    -0.72100
O276        O  0.20991910  0.32465159  0.67422671    -0.84300
Zr277      Zr  0.26197946  0.37866877  0.63801389     2.26400
Zr278      Zr  0.30499660  0.39764023  0.67311243     2.06300
Zr279      Zr  0.18923355  0.34594174  0.65757805     2.10000
Zr280      Zr  0.25071154  0.43379016  0.66757296     1.78800
O281        O  0.15110374  0.29278661  0.64965652    -0.93100
O282        O  0.29373382  0.48399761  0.67511103    -0.40900
O283        O  0.22820761  0.39446128  0.64863405    -0.77500
O284        O  0.28459564  0.41951445  0.65644215    -0.96200
O285        O  0.28330800  0.35777719  0.65440998    -0.89500
O286        O  0.22237471  0.33046483  0.64639592    -0.92400
C287        C  0.22908688  0.43470185  0.70228281     1.01400
C288        C  0.15626076  0.31990127  0.68996260     1.14300
C289        C  0.29900552  0.38576092  0.70960168     1.05100
O290        O  0.34478956  0.44896742  0.68194685    -0.94500
O291        O  0.34014504  0.42374958  0.65448577    -0.90300
O292        O  0.31480705  0.40642324  0.63347134    -0.83400
C293        C  0.33869838  0.42262858  0.64085260     1.11700
O294        O  0.23114710  0.26908317  0.68067762    -0.96500
Zr295      Zr  0.24355964  0.30985705  0.66287067     1.88900
O296        O  0.26596614  0.33617510  0.62478642    -0.73100
O297        O  0.33665971  0.37234384  0.67238448    -0.52400
O298        O  0.28290056  0.29652168  0.66796146    -0.97100
O299        O  0.19875247  0.25979931  0.65703597    -0.54300
O300        O  0.25537175  0.29543628  0.63972262    -0.73700
C301        C  0.26260697  0.30821598  0.62752324     0.98700
O302        O  0.27565291  0.41746744  0.61913499    -0.62500
O303        O  0.15622873  0.36955145  0.65689559    -0.57300
O304        O  0.22243575  0.36418103  0.62030989    -0.94000
O305        O  0.17971656  0.34746775  0.63247362    -0.92400
O306        O  0.21206021  0.44736645  0.66138089    -0.92700
O307        O  0.26708175  0.47667201  0.65061374    -0.91500
C308        C  0.19434425  0.35404446  0.62088338     1.17500
H309        H  0.19597174  0.39004033  0.68048684     0.33500
H310        H  0.29990969  0.43902968  0.65252409     0.44300
H311        H  0.21249222  0.31521523  0.63863445     0.37900
H312        H  0.27309578  0.33977020  0.68880541     0.34300
H313        H  0.28554188  0.49821842  0.67835682     0.26100
H314        H  0.35694786  0.39023184  0.67404166     0.32100
H315        H  0.29749076  0.30647199  0.66035489     0.38000
H316        H  0.21743568  0.46781508  0.66669314     0.32400
H317        H  0.16582222  0.38765102  0.65038436     0.31300
H318        H  0.13504398  0.29629060  0.64571087     0.33000
H319        H  0.19298221  0.26216602  0.64729657     0.32000
H320        H  0.26688025  0.46613779  0.64135242     0.36000
H321        H  0.25902138  0.42239530  0.61833526     0.28700
H322        H  0.21908643  0.34241551  0.72095546     0.32900
H323        H  0.23130828  0.25046929  0.67565978     0.35800
H324        H  0.13847249  0.35345486  0.65158335     0.28400
H325        H  0.29200281  0.43770171  0.62316152     0.41300
H326        H  0.36258636  0.44593307  0.68211001     0.31300
H327        H  0.30099883  0.47897797  0.68392447     0.38900
H328        H  0.18333088  0.26038387  0.66317385     0.30800
H329        H  0.33207433  0.35979784  0.68112239     0.30800
H330        H  0.22884527  0.31948920  0.71285067     0.31100
C331        C  0.38542223  0.35742599  0.43450126     0.03200
C332        C  0.35815723  0.35732905  0.43601825    -0.12900
C333        C  0.33322463  0.33550788  0.42804738     0.00700
C334        C  0.33564571  0.31355210  0.41855889    -0.11500
C335        C  0.36283830  0.31373398  0.41680754     0.03200
C336        C  0.38753008  0.33532663  0.42494902    -0.10900
H337        H  0.35651089  0.37480856  0.44313511     0.08800
H338        H  0.31674310  0.29736910  0.41200927     0.06300
H339        H  0.40854870  0.33549197  0.42355460     0.06200
C340        C  0.50809619  0.20570007  0.43015589     0.03200
C341        C  0.03840521  0.23649037  0.43433349    -0.12900
C342        C  0.05772410  0.23423277  0.44418736     0.00700
C343        C  0.04771262  0.20685417  0.45231753    -0.11500
C344        C  0.01880011  0.18139285  0.45050725     0.03200
C345        C  0.49786563  0.17956306  0.43920563    -0.10900
H346        H  0.04640927  0.25760363  0.42792915     0.08800
H347        H  0.06303569  0.20467016  0.45954853     0.06300
H348        H  0.47611762  0.15914083  0.43740140     0.06200
C349        C  0.19896208  0.02561973  0.38518751     0.03200
C350        C  0.17935712  0.02969465  0.39441469    -0.12900
C351        C  0.16020725  0.00438671  0.40298269     0.00700
C352        C  0.16044353  0.47300089  0.40095612    -0.11500
C353        C  0.18202112  0.47027165  0.39273965     0.03200
C354        C  0.19920415  0.99612360  0.38444447    -0.10900
H355        H  0.17960304  0.05270454  0.39516229     0.08800
H356        H  0.14691737  0.45399076  0.40804040     0.06300
H357        H  0.21506834  0.99334916  0.37773846     0.06200
C358        C  0.22535306  0.34467981  0.42417382     0.80300
N359        N  0.20046509  0.32334929  0.43084421    -0.78000
C360        C  0.17493021  0.32498024  0.42949410     0.82700
N361        N  0.17419246  0.34740747  0.42117919    -0.78000
C362        C  0.19851077  0.36843869  0.41423310     0.82800
N363        N  0.22427913  0.36728150  0.41587422    -0.79700
Zr364      Zr  0.08825176  0.02751775  0.52519943     2.17500
O365        O  0.09607756  0.51868600  0.55009883    -0.51300
O366        O  0.13176827  0.07651935  0.53376974    -0.74500
O367        O  0.11653567  0.49678431  0.52879245    -0.81200
O368        O  0.02029396  0.03765625  0.53398595    -0.83000
O369        O  0.12881866  0.48332809  0.50742468    -0.78600
O370        O  0.05597016  0.02879220  0.54400520    -0.90200
O371        O  0.14706244  0.11367361  0.51669512    -0.76200
O372        O  0.12110079  0.04881523  0.50585998    -0.85700
O373        O  0.08067731  0.07004909  0.51658262    -0.85400
O374        O  0.07450500  0.48287518  0.50927954    -0.72100
O375        O  0.03693471  0.00352407  0.51816317    -0.84300
Zr376      Zr  0.04748559  0.02336800  0.47234444     2.26400
Zr377      Zr  0.10573122  0.00530977  0.48870061     2.06300
Zr378      Zr  0.02981758  0.04584880  0.50889758     2.10000
Zr379      Zr  0.11288916  0.09052058  0.49693890     1.78800
O380        O  0.47645347  0.02374277  0.51043503    -0.93100
O381        O  0.16232946  0.10893912  0.48741168    -0.40900
O382        O  0.06234310  0.06736535  0.48929561    -0.77500
O383        O  0.09891755  0.04803481  0.47949008    -0.96200
O384        O  0.05478313  0.98101968  0.48129308    -0.89500
O385        O  0.01428523  0.00252262  0.49167010    -0.92400
C386        C  0.14962904  0.10416403  0.52894801     1.01400
C387        C  0.03267458  0.03229987  0.54463921     1.14300
C388        C  0.12765696  0.48251202  0.52105693     1.05100
O389        O  0.15904057  0.03577946  0.48539805    -0.94500
O390        O  0.11188551  0.00702028  0.46315611    -0.90300
O391        O  0.07725733  0.01790737  0.45332915    -0.83400
C392        C  0.09932558  0.01227110  0.45253983     1.11700
O393        O  0.51545594  0.43157792  0.51980754    -0.96500
Zr394      Zr  0.02428086  0.46140667  0.50164918     1.88900
O395        O  0.00373379  0.97457982  0.46380647    -0.73100
O396        O  0.09413118  0.44609500  0.48303524    -0.52400
O397        O  0.02978100  0.41474886  0.49425122    -0.97100
O398        O  0.47605423  0.44874570  0.51016839    -0.54300
O399        O  0.48899527  0.44111646  0.48011103    -0.73700
C400        C  0.98762885  0.44546792  0.46960822     0.98700
O401        O  0.04539394  0.03862170  0.44797260    -0.62500
O402        O  0.03370941  0.09494955  0.51991404    -0.57300
O403        O  0.02552041  0.05905205  0.46991490    -0.94000
O404        O  0.01377300  0.07156846  0.49160149    -0.92400
O405        O  0.10827816  0.13789203  0.50385171    -0.92700
O406        O  0.12351765  0.12659794  0.47725018    -0.91500
C407        C  0.01547365  0.07384990  0.47804102     1.17500
H408        H  0.08486216  0.08632598  0.52382255     0.33500
H409        H  0.11175177  0.05774132  0.47158884     0.44300
H410        H  0.99398189  0.99517029  0.48873128     0.37900
H411        H  0.07481260  0.46476749  0.51353677     0.34300
H412        H  0.17291336  0.13239183  0.48953139     0.26100
H413        H  0.08552747  0.44218768  0.47330901     0.32100
H414        H  0.53119046  0.41901479  0.48179187     0.38000
H415        H  0.09110700  0.13583705  0.49825594     0.32400
H416        H  0.04661989  0.11228064  0.51356490     0.31300
H417        H  0.47364118  0.03481163  0.51891133     0.33000
H418        H  0.46325897  0.44960813  0.50251932     0.32000
H419        H  0.11700606  0.11235853  0.46862257     0.36000
H420        H  0.02433810  0.03210440  0.44594085     0.28700
H421        H  0.11749901  0.52714247  0.55206749     0.32900
H422        H  0.49934361  0.41012128  0.51682674     0.35800
H423        H  0.01384578  0.09319446  0.51863636     0.28400
H424        H  0.05573087  0.06242762  0.44811164     0.41300
H425        H  0.16286748  0.02714454  0.47638942     0.31300
H426        H  0.17191238  0.10017242  0.49376830     0.38900
H427        H  0.47928358  0.46679432  0.51678455     0.30800
H428        H  0.11339790  0.44638038  0.48182837     0.30800
H429        H  0.08725775  0.49505400  0.55071321     0.31100
C430        C  0.40435811  0.49289760  0.23211750     0.03200
C431        C  0.40188205  0.51358775  0.24237967    -0.12900
C432        C  0.43106503  0.04321192  0.25026147     0.00700
C433        C  0.45762621  0.04182712  0.24868833    -0.11500
C434        C  0.45679117  0.51522168  0.23859704     0.03200
C435        C  0.43208365  0.49406953  0.23020843    -0.10900
H436        H  0.38063245  0.51257396  0.24425207     0.08800
H437        H  0.47676347  0.05761537  0.25516344     0.06300
H438        H  0.43453668  0.47857684  0.22223312     0.06200
C439        C  0.28322165  0.15963791  0.23572768     0.03200
C440        C  0.25533735  0.13281464  0.23344682    -0.12900
C441        C  0.23717809  0.13131324  0.22202697     0.00700
C442        C  0.24733184  0.15689687  0.21272635    -0.11500
C443        C  0.27552360  0.18373184  0.21476928     0.03200
C444        C  0.29358660  0.18460784  0.22613420    -0.10900
H445        H  0.24704690  0.11385058  0.24108089     0.08800
H446        H  0.23271924  0.15660575  0.20435459     0.06300
H447        H  0.31493358  0.20559363  0.22801915     0.06200
C448        C  0.08363660  0.31856459  0.27689809     0.03200
C449        C  0.10275031  0.31288893  0.26796113    -0.12900
C450        C  0.12216757  0.33705207  0.25906144     0.00700
C451        C  0.12154956  0.36627018  0.25877682    -0.11500
C452        C  0.10164787  0.37158707  0.26709540     0.03200
C453        C  0.08312328  0.34795095  0.27638315    -0.10900
H454        H  0.10240464  0.28981323  0.26788428     0.08800
H455        H  0.13527387  0.38417179  0.25128637     0.06300
H456        H  0.06745070  0.35186031  0.28274538     0.06200
C457        C  0.07023137  0.01098765  0.23959080     0.80300
N458        N  0.09508234  0.03380832  0.23335154    -0.78000
C459        C  0.12096932  0.03247326  0.23420228     0.82700
N460        N  0.11776951  0.50345563  0.24098326    -0.78000
C461        C  0.09356798  0.48088635  0.24750878     0.82800
N462        N  0.06800395  0.48271554  0.24713200    -0.79700
Zr463      Zr  0.24168123  0.33029847  0.19071777     2.17500
O464        O  0.23416139  0.30326336  0.21323299    -0.51300
O465        O  0.28613503  0.37549824  0.20115493    -0.74500
O466        O  0.26845767  0.30005681  0.19235026    -0.81200
O467        O  0.17538416  0.34142686  0.19997807    -0.83000
O468        O  0.27916852  0.28757535  0.17037635    -0.78600
O469        O  0.21188959  0.33417856  0.21009036    -0.90200
O470        O  0.29948540  0.41789172  0.18686978    -0.76200
O471        O  0.27622211  0.35220333  0.17202522    -0.85700
O472        O  0.23795982  0.37608709  0.18363835    -0.85400
O473        O  0.22553063  0.28828994  0.17248863    -0.72100
O474        O  0.19126249  0.30974074  0.18292253    -0.84300
Zr475      Zr  0.20670408  0.33715141  0.13813041     2.26400
Zr476      Zr  0.25991729  0.31121810  0.15350636     2.06300
Zr477      Zr  0.18803798  0.35557376  0.17542478     2.10000
Zr478      Zr  0.27210811  0.39763626  0.16479523     1.78800
O479        O  0.13471506  0.33486681  0.17684070    -0.93100
O480        O  0.32312951  0.41161153  0.15922119    -0.40900
O481        O  0.22231854  0.37859710  0.15651344    -0.77500
O482        O  0.25732041  0.35781394  0.14604135    -0.96200
O483        O  0.20997800  0.29110492  0.14524681    -0.89500
O484        O  0.17200951  0.31503202  0.15679233    -0.92400
C485        C  0.30231588  0.40515917  0.19817720     1.01400
C486        C  0.18780966  0.33610838  0.21064303     1.14300
C487        C  0.27883797  0.28610612  0.18398668     1.05100
O488        O  0.31255944  0.33134247  0.14955636    -0.94500
O489        O  0.26977574  0.31977381  0.12826917    -0.90300
O490        O  0.23543919  0.33135896  0.11864433    -0.83400
C491        C  0.25797085  0.32652038  0.11774661     1.11700
O492        O  0.16045539  0.23108876  0.18315285    -0.96500
Zr493      Zr  0.17604137  0.26965715  0.16420798     1.88900
O494        O  0.16158174  0.29233504  0.12795674    -0.73100
O495        O  0.24684139  0.25855195  0.14289260    -0.52400
O496        O  0.17869583  0.22078265  0.15791895    -0.97100
O497        O  0.12568111  0.25353282  0.17192105    -0.54300
O498        O  0.14723315  0.25024568  0.14250471    -0.73700
C499        C  0.14470456  0.26290979  0.13111075     0.98700
O500        O  0.21119989  0.36113201  0.11500422    -0.62500
O501        O  0.19814289  0.40538630  0.18814170    -0.57300
O502        O  0.18493959  0.37280331  0.13715252    -0.94000
O503        O  0.17339604  0.38401583  0.15916207    -0.92400
O504        O  0.27328988  0.44892984  0.17000738    -0.92700
O505        O  0.28861574  0.43440492  0.14516200    -0.91500
C506        C  0.17514213  0.38711555  0.14567371     1.17500
H507        H  0.24231335  0.39137301  0.19144301     0.33500
H508        H  0.27087007  0.36837259  0.13846522     0.44300
H509        H  0.15217688  0.30932276  0.15367193     0.37900
H510        H  0.22554147  0.26931887  0.17593007     0.34300
H511        H  0.33459612  0.43497353  0.16144415     0.26100
H512        H  0.26606832  0.25907083  0.14114135     0.32100
H513        H  0.17901254  0.21996726  0.14740603     0.38000
H514        H  0.29460565  0.46462229  0.17111709     0.32400
H515        H  0.21047805  0.42259006  0.18160136     0.31300
H516        H  0.13169342  0.34415053  0.18585184     0.33000
H517        H  0.11508522  0.25508557  0.16344810     0.32000
H518        H  0.27244161  0.42441839  0.13797141     0.36000
H519        H  0.19078931  0.35528724  0.11189907     0.28700
H520        H  0.25413486  0.31118547  0.21749335     0.32900
H521        H  0.14304965  0.21154623  0.17929967     0.35800
H522        H  0.17890745  0.40546417  0.18827340     0.28400
H523        H  0.22110961  0.38469018  0.11684770     0.41300
H524        H  0.32003933  0.35409515  0.14712505     0.31300
H525        H  0.32943332  0.40163022  0.16665209     0.38900
H526        H  0.12759411  0.27129111  0.17839923     0.30800
H527        H  0.23808159  0.24347959  0.15072949     0.30800
H528        H  0.22724930  0.28031206  0.21070884     0.31100
Zr529      Zr  0.40991029  0.18785410  0.30585491     2.17500
O530        O  0.42055217  0.22313185  0.28579691    -0.51300
O531        O  0.41651513  0.14803566  0.29172630    -0.74500
O532        O  0.46248475  0.22057444  0.30186225    -0.81200
O533        O  0.32760003  0.15599004  0.29963325    -0.83000
O534        O  0.48806000  0.23266525  0.32277686    -0.78600
O535        O  0.37175776  0.17833988  0.28842609    -0.90200
O536        O  0.40863178  0.10740533  0.30631494    -0.76200
O537        O  0.43283887  0.16844577  0.32203121    -0.85700
O538        O  0.37180596  0.13717651  0.31310816    -0.85400
O539        O  0.42990297  0.22801005  0.32468934    -0.72100
O540        O  0.37312223  0.19883388  0.31654969    -0.84300
Zr541      Zr  0.37734738  0.16823540  0.35978622     2.26400
Zr542      Zr  0.45167616  0.20741584  0.34124141     2.06300
Zr543      Zr  0.33570873  0.14808300  0.32432668     2.10000
Zr544      Zr  0.39462039  0.11838639  0.32958358     1.78800
O545        O  0.29488069  0.16034677  0.32238779    -0.93100
O546        O  0.43587655  0.10747208  0.33337875    -0.40900
O547        O  0.35754968  0.12787612  0.34096094    -0.77500
O548        O  0.41392835  0.15673452  0.34902537    -0.96200
O549        O  0.41544652  0.21847075  0.35222123    -0.89500
O550        O  0.35447173  0.18748547  0.34340891    -0.92400
C551        C  0.41521030  0.12091306  0.29426605     1.01400
C552        C  0.34358122  0.16708581  0.28857677     1.14300
C553        C  0.48658165  0.23442717  0.30922431     1.05100
O554        O  0.48720749  0.18738986  0.34349401    -0.94500
O555        O  0.45969809  0.20537269  0.36665896    -0.90300
O556        O  0.41553309  0.18229743  0.37789691    -0.83400
C557        C  0.44389248  0.19539926  0.37788243     1.11700
O558        O  0.40031310  0.27466313  0.31684516    -0.96500
Zr559      Zr  0.39283773  0.23754994  0.33578049     1.88900
O560        O  0.37298126  0.20980994  0.37371334    -0.73100
O561        O  0.48553118  0.26233262  0.34923863    -0.52400
O562        O  0.43520381  0.29012590  0.34087664    -0.97100
O563        O  0.35118206  0.24852558  0.33368031    -0.54300
O564        O  0.38512570  0.25219785  0.35953785    -0.73700
C565        C  0.37767392  0.23847494  0.37149505     0.98700
O566        O  0.36915228  0.13324153  0.37971216    -0.62500
O567        O  0.30528614  0.09351756  0.31484788    -0.57300
O568        O  0.32455180  0.13510771  0.36422356    -0.94000
O569        O  0.30039335  0.12141074  0.34288302    -0.92400
O570        O  0.35340246  0.06617815  0.32282397    -0.92700
O571        O  0.38501697  0.07872381  0.34756638    -0.91500
C572        C  0.30100183  0.11996684  0.35646577     1.17500
H573        H  0.36306156  0.12218289  0.30505615     0.33500
H574        H  0.42202912  0.14828449  0.35600619     0.44300
H575        H  0.33873078  0.18999016  0.34783255     0.37900
H576        H  0.44477915  0.24824895  0.32105981     0.34300
H577        H  0.43078392  0.08761541  0.32762656     0.26100
H578        H  0.50548837  0.26410343  0.34863054     0.32100
H579        H  0.44192200  0.28874032  0.35056270     0.38000
H580        H  0.36266322  0.05242009  0.32059399     0.32400
H581        H  0.30504976  0.07952583  0.32252445     0.31300
H582        H  0.27865254  0.14100935  0.31765454     0.33000
H583        H  0.34047151  0.24201587  0.34275757     0.32000
H584        H  0.38263232  0.08878229  0.35649312     0.36000
H585        H  0.35833130  0.13938938  0.38680411     0.28700
H586        H  0.43286328  0.21782811  0.27927763     0.32900
H587        H  0.39957856  0.29331488  0.32148287     0.35800
H588        H  0.28489873  0.09065575  0.31457136     0.28400
H589        H  0.35469643  0.11139009  0.37622947     0.41300
H590        H  0.50639243  0.20681026  0.34547238     0.31300
H591        H  0.45267019  0.12458509  0.32835012     0.38900
H592        H  0.33776027  0.23234639  0.32656563     0.30800
H593        H  0.48493312  0.27594978  0.34157538     0.30800
H594        H  0.43387737  0.24513459  0.28958649     0.31100
C595        C  0.06946428  0.42364157  0.25460124    -0.21200
C596        C  0.09483715  0.45387533  0.25439580    -0.09300
C597        C  0.12168745  0.45736998  0.25998112     0.29600
C598        C  0.12326375  0.43077719  0.26504609    -0.21200
C599        C  0.09826241  0.40029736  0.26455901    -0.09300
C600        C  0.07117132  0.39695929  0.25950455     0.29600
F601        F  0.04698864  0.36751286  0.25823319    -0.19800
H602        H  0.04864031  0.42026874  0.25022815     0.18000
H603        H  0.14433865  0.43368703  0.26883917     0.18000
F604        F  0.14658505  0.48629860  0.26028331    -0.19800
C605        C  0.03816849  0.27554332  0.30855831    -0.21200
C606        C  0.01515770  0.24793850  0.30193797    -0.09300
C607        C  0.01699511  0.24203582  0.28729707     0.29600
C608        C  0.04027845  0.26441992  0.27934144    -0.21200
C609        C  0.06205473  0.29296786  0.28580430    -0.09300
C610        C  0.06134276  0.29801378  0.30054836     0.29600
F611        F  0.08258943  0.32514536  0.30709950    -0.19800
H612        H  0.03737449  0.28069671  0.31979179     0.18000
H613        H  0.04057063  0.26017174  0.26798321     0.18000
F614        F  0.99580080  0.21514629  0.28056023    -0.19800
C615        C  0.12713105  0.30826111  0.23762656    -0.21200
C616        C  0.14076577  0.33139233  0.24861410    -0.09300
C617        C  0.17119779  0.35315928  0.24788017     0.29600
C618        C  0.18723854  0.35304202  0.23587458    -0.21200
C619        C  0.17289790  0.33175559  0.22436549    -0.09300
C620        C  0.14298788  0.30864842  0.22549205     0.29600
F621        F  0.12879993  0.28749191  0.21454552    -0.19800
H622        H  0.10365764  0.29156437  0.23794711     0.18000
H623        H  0.21026668  0.37102362  0.23513835     0.18000
F624        F  0.18481869  0.37587905  0.25836040    -0.19800
C625        C  0.18284979  0.11259172  0.22270799    -0.21200
C626        C  0.20620232  0.10518661  0.22138864    -0.09300
C627        C  0.20003259  0.07299956  0.22186928     0.29600
C628        C  0.17160579  0.04917395  0.22507571    -0.21200
C629        C  0.14874154  0.05692004  0.22781279    -0.09300
C630        C  0.15424100  0.08865915  0.22585331     0.29600
F631        F  0.13278000  0.09717565  0.22811065    -0.19800
H632        H  0.18721476  0.13731629  0.22234139     0.18000
H633        H  0.16784474  0.02477442  0.22607091     0.18000
F634        F  0.22187345  0.06488193  0.21995952    -0.19800
C635        C  0.27975767  0.20924741  0.19145449    -0.21200
C636        C  0.28402608  0.21249327  0.20625617    -0.09300
C637        C  0.29274679  0.24261580  0.21302891     0.29600
C638        C  0.29446747  0.26804048  0.20526205    -0.21200
C639        C  0.28736580  0.26389374  0.19067773    -0.09300
C640        C  0.28152147  0.23475573  0.18366257     0.29600
F641        F  0.27433439  0.22962752  0.16960690    -0.19800
H642        H  0.27329010  0.18630033  0.18605465     0.18000
H643        H  0.29899826  0.29022616  0.21090374     0.18000
F644        F  0.29662487  0.24667310  0.22735540    -0.19800
C645        C  0.28498217  0.15990293  0.26206721    -0.21200
C646        C  0.29955497  0.16322256  0.24912555    -0.09300
C647        C  0.32926800  0.16993474  0.24920884     0.29600
C648        C  0.34357497  0.17149265  0.26207731    -0.21200
C649        C  0.32860783  0.16685945  0.27506982    -0.09300
C650        C  0.29929216  0.16188582  0.27492219     0.29600
F651        F  0.28439623  0.15919632  0.28715852    -0.19800
H652        H  0.26235296  0.15580332  0.26220575     0.18000
H653        H  0.36624644  0.17578361  0.26182582     0.18000
F654        F  0.34412053  0.17398164  0.23685370    -0.19800
C655        C  0.01326993  0.04056558  0.23822638    -0.21200
C656        C  0.48524741  0.51450263  0.23754222    -0.09300
C657        C  0.48624841  0.48592608  0.23994051     0.29600
C658        C  0.01178297  0.48104275  0.24287518    -0.21200
C659        C  0.03855460  0.50882111  0.24025994    -0.09300
C660        C  0.04050935  0.04056474  0.23770678     0.29600
F661        F  0.06565909  0.06901523  0.23674859    -0.19800
H662        H  0.01286857  0.06316199  0.23751960     0.18000
H663        H  0.01151313  0.45849878  0.24490944     0.18000
F664        F  0.46122073  0.45871714  0.24305354    -0.19800
C665        C  0.34554082  0.41592007  0.21383385    -0.21200
C666        C  0.32651521  0.42636671  0.20807650    -0.09300
C667        C  0.33263165  0.45835327  0.21066509     0.29600
C668        C  0.35793540  0.47974739  0.21840748    -0.21200
C669        C  0.37766579  0.46973616  0.22378431    -0.09300
C670        C  0.37096019  0.43737091  0.22157920     0.29600
F671        F  0.38868870  0.42629937  0.22707379    -0.19800
H672        H  0.34122369  0.39137473  0.21194425     0.18000
H673        H  0.36233823  0.50438742  0.22001579     0.18000
F674        F  0.31404757  0.46889640  0.20571252    -0.19800
C675        C  0.43585491  0.08565488  0.28570307    -0.21200
C676        C  0.42133607  0.10350505  0.28261334    -0.09300
C677        C  0.41100884  0.10246432  0.26867178     0.29600
C678        C  0.41466627  0.08324833  0.25812129    -0.21200
C679        C  0.42870896  0.06487972  0.26128688    -0.09300
C680        C  0.43948979  0.06647205  0.27520468     0.29600
F681        F  0.45215689  0.04821018  0.27889388    -0.19800
H682        H  0.44387362  0.08603425  0.29638986     0.18000
H683        H  0.40619397  0.08240192  0.24749492     0.18000
F684        F  0.39598182  0.11856346  0.26542709    -0.19800
C685        C  0.21627044  0.44804609  0.39825049    -0.21200
C686        C  0.18757838  0.44267753  0.39477600    -0.09300
C687        C  0.16379761  0.41145028  0.39542182     0.29600
C688        C  0.16818836  0.38687602  0.40074854    -0.21200
C689        C  0.19630801  0.39288218  0.40560388    -0.09300
C690        C  0.22070036  0.42332957  0.40361054     0.29600
F691        F  0.24830162  0.43007361  0.40795411    -0.19800
H692        H  0.23497549  0.47195942  0.39785815     0.18000
H693        H  0.14912190  0.36340157  0.40177228     0.18000
F694        F  0.13597788  0.40510476  0.39166740    -0.19800
C695        C  0.22455828  0.05031856  0.36285626    -0.21200
C696        C  0.22212365  0.05286902  0.37760454    -0.09300
C697        C  0.24456165  0.07902245  0.38525914     0.29600
C698        C  0.26974076  0.10146108  0.37829066    -0.21200
C699        C  0.27281529  0.09837016  0.36354622    -0.09300
C700        C  0.24943904  0.07289689  0.35583283     0.29600
F701        F  0.25127386  0.06848385  0.34162700    -0.19800
H702        H  0.20762358  0.03001807  0.35684684     0.18000
H703        H  0.28723527  0.12073008  0.38451488     0.18000
F704        F  0.24308318  0.08153761  0.39961039    -0.19800
C705        C  0.15428699  0.03677630  0.42297322    -0.21200
C706        C  0.14181988  0.00900608  0.41407052    -0.09300
C707        C  0.11332428  0.98402621  0.41713266     0.29600
C708        C  0.09857660  0.98615010  0.42926778    -0.21200
C709        C  0.11209654  0.01288166  0.43858003    -0.09300
C710        C  0.13971252  0.03855492  0.43523988     0.29600
F711        F  0.15323848  0.06456585  0.44424539    -0.19800
H712        H  0.17624037  0.05616254  0.42100514     0.18000
H713        H  0.07396468  0.47337374  0.42825236     0.18000
F714        F  0.10027419  0.95690687  0.40875850    -0.19800
C715        C  0.11026860  0.24731159  0.44048686    -0.21200
C716        C  0.08955726  0.25783019  0.44394061    -0.09300
C717        C  0.09884431  0.29090159  0.44488614     0.29600
C718        C  0.12756035  0.31286424  0.44109104    -0.21200
C719        C  0.14751063  0.30220992  0.43643812    -0.09300
C720        C  0.13915009  0.26934740  0.43678765     0.29600
F721        F  0.15784305  0.25826276  0.43227488    -0.19800
H722        H  0.10346086  0.22185959  0.43963370     0.18000
H723        H  0.13381771  0.33819922  0.44115632     0.18000
F724        F  0.07969272  0.30180965  0.44880590    -0.19800
C725        C  0.46139244  0.19682098  0.41750602    -0.21200
C726        C  0.49119271  0.20377133  0.41705637    -0.09300
C727        C  0.50493242  0.20783808  0.40380219     0.29600
C728        C  0.48936927  0.20521106  0.39130014    -0.21200
C729        C  0.45966313  0.19856877  0.39158252    -0.09300
C730        C  0.44571576  0.19444326  0.40490182     0.29600
F731        F  0.41717044  0.18846601  0.40581634    -0.19800
H732        H  0.45038252  0.19352593  0.42761839     0.18000
H733        H  0.50068888  0.20800274  0.38130917     0.18000
F734        F  0.03766011  0.23073824  0.40462148    -0.19800
C735        C  0.01468720  0.12596863  0.47951509    -0.21200
C736        C  0.00864762  0.09783928  0.47157854    -0.09300
C737        C  0.00097710  0.09581337  0.45707341     0.29600
C738        C  0.49923560  0.11976418  0.45046712    -0.21200
C739        C  0.01050273  0.15142166  0.45818771    -0.09300
C740        C  0.01605517  0.15265702  0.47288473     0.29600
F741        F  0.02473949  0.18037403  0.48065794    -0.19800
H742        H  0.02078997  0.12833110  0.49067160     0.18000
H743        H  0.49464340  0.11765506  0.43914245     0.18000
F744        F  0.49178297  0.06627564  0.44961296    -0.19800
C745        C  0.30687929  0.36756923  0.42529271    -0.21200
C746        C  0.30568323  0.33811926  0.42829114    -0.09300
C747        C  0.27807919  0.31117096  0.43048936     0.29600
C748        C  0.25210894  0.31365866  0.42937529    -0.21200
C749        C  0.25318365  0.34289767  0.42586820    -0.09300
C750        C  0.28094874  0.37001084  0.42400511     0.29600
F751        F  0.28317781  0.39895710  0.42102416    -0.19800
H752        H  0.32797389  0.38856250  0.42352469     0.18000
H753        H  0.23107463  0.29245278  0.43095467     0.18000
F754        F  0.27623970  0.28249999  0.43370583    -0.19800
C755        C  0.36386957  0.27932283  0.38035419    -0.21200
C756        C  0.37387425  0.25717628  0.38333990    -0.09300
C757        C  0.38058042  0.25388077  0.39749773     0.29600
C758        C  0.37689992  0.27227635  0.40844152    -0.21200
C759        C  0.36622488  0.29381009  0.40540226    -0.09300
C760        C  0.35989002  0.29733495  0.39126135     0.29600
F761        F  0.35057371  0.31884586  0.38796045    -0.19800
H762        H  0.35885573  0.28252206  0.36952643     0.18000
H763        H  0.38232575  0.26973166  0.41928764     0.18000
F764        F  0.39158194  0.23378134  0.40068891    -0.19800
C765        C  0.40946702  0.38460034  0.45746098    -0.21200
C766        C  0.41168833  0.38107907  0.44275163    -0.09300
C767        C  0.43876918  0.40054596  0.43612082     0.29600
C768        C  0.46302181  0.42338265  0.44415273    -0.21200
C769        C  0.46085042  0.42659137  0.45892790    -0.09300
C770        C  0.43375625  0.40683702  0.46550924     0.29600
F771        F  0.43049427  0.40932101  0.47972911    -0.19800
H772        H  0.38886804  0.36978742  0.46277042     0.18000
H773        H  0.48366231  0.43813865  0.43887144     0.18000
F774        F  0.44162657  0.39790526  0.42187179    -0.19800
C775        C  0.47171343  0.13292573  0.59213706    -0.21200
C776        C  0.44596326  0.10393912  0.59427053    -0.09300
C777        C  0.41827022  0.10191683  0.59117186     0.29600
C778        C  0.41675562  0.12821960  0.58549724    -0.21200
C779        C  0.44277995  0.15665792  0.58260413    -0.09300
C780        C  0.47032487  0.15881048  0.58626827     0.29600
F781        F  0.49625464  0.18563868  0.58390451    -0.19800
H782        H  0.99536521  0.13756631  0.60059105     0.18000
H783        H  0.39527974  0.12580061  0.58279884     0.18000
F784        F  0.39285001  0.07396589  0.59269604    -0.19800
C785        C  0.39062046  0.46174739  0.61060163    -0.21200
C786        C  0.41102675  0.49092063  0.61717690    -0.12300
C787        C  0.41013998  0.49540758  0.63192956     0.29600
C788        C  0.38778755  0.47175895  0.63984552    -0.21200
C789        C  0.36579181  0.44354815  0.63309272    -0.09300
C790        C  0.36807334  0.43820788  0.61845811     0.29600
F791        F  0.34783216  0.41085728  0.61162388    -0.19800
H792        H  0.39241224  0.96548514  0.60076306     0.18000
H793        H  0.38667967  0.47646839  0.65110147     0.18000
F794        F  0.43031495  0.52309039  0.63856707    -0.19800
C795        C  0.01950740  0.05260356  0.58203243    -0.21200
C796        C  0.48815843  0.03221776  0.58204731    -0.09300
C797        C  0.47406763  0.00666580  0.57205245     0.29600
C798        C  0.48925977  0.00495816  0.56002814    -0.21200
C799        C  0.01863227  0.02999251  0.55846384    -0.09300
C800        C  0.03453151  0.05055975  0.56996842     0.29600
F801        F  0.06404136  0.07061189  0.56902858    -0.19800
H802        H  0.03165272  0.07011329  0.59044106     0.18000
H803        H  0.47755792  0.98653790  0.55187324     0.18000
F804        F  0.44488889  0.98532137  0.57317699    -0.19800
C805        C  0.99955498  0.28270482  0.55815656    -0.21200
C806        C  0.99323781  0.25053130  0.55902187    -0.09300
C807        C  0.01575536  0.24231772  0.55602877     0.29600
C808        C  0.04460795  0.26619397  0.55373122    -0.21200
C809        C  0.05158275  0.29862337  0.55429917    -0.09300
C810        C  0.02859509  0.30670496  0.55584087     0.29600
F811        F  0.03463705  0.33792512  0.55651181    -0.19800
H812        H  0.98260730  0.28957244  0.56040690     0.18000
H813        H  0.06190773  0.25948082  0.55232172     0.18000
F814        F  0.51278380  0.21835844  0.55360105    -0.19800
C815        C  0.13110826  0.33619479  0.59498205    -0.21200
C816        C  0.14597894  0.34656670  0.58210357    -0.09300
C817        C  0.17669060  0.35754796  0.58183443     0.29600
C818        C  0.19223600  0.35922854  0.59435578    -0.21200
C819        C  0.17749283  0.34999539  0.60739801    -0.09300
C820        C  0.14646626  0.33774571  0.60744701     0.29600
F821        F  0.13073186  0.32776023  0.61956505    -0.19800
H822        H  0.10750101  0.32778520  0.59554082     0.18000
H823        H  0.21593847  0.36829637  0.59385496     0.18000
F824        F  0.19165760  0.36657453  0.56946894    -0.19800
C825        C  0.13208173  0.43245510  0.52045200    -0.21200
C826        C  0.13553640  0.45998806  0.52814079    -0.09300
C827        C  0.14025834  0.46179977  0.54297249     0.29600
C828        C  0.13870458  0.43539329  0.54999951    -0.21200
C829        C  0.13202314  0.40675141  0.54239878    -0.09300
C830        C  0.13002856  0.40594890  0.52750612     0.29600
F831        F  0.12405702  0.37871662  0.51986653    -0.19800
H832        H  0.12830290  0.43021287  0.50905727     0.18000
H833        H  0.14037297  0.43645827  0.56149758     0.18000
F834        F  0.14435546  0.48816145  0.55080304    -0.19800
C835        C  0.36040086  0.24210106  0.56571777    -0.21200
C836        C  0.33346426  0.21346598  0.56645240    -0.09300
C837        C  0.33395000  0.18404149  0.56672709     0.29600
C838        C  0.36082430  0.18340996  0.56665410    -0.21200
C839        C  0.38784104  0.21200197  0.56631905    -0.09300
C840        C  0.38740038  0.24147165  0.56560530     0.29600
F841        F  0.41295708  0.26973900  0.56552276    -0.19800
H842        H  0.36052876  0.26504031  0.56551169     0.18000
H843        H  0.36046252  0.16038914  0.56714797     0.18000
F844        F  0.30852495  0.15593680  0.56790292    -0.19800
C845        C  0.26756323  0.24088986  0.60667327    -0.21200
C846        C  0.27252326  0.25272122  0.59293376    -0.09300
C847        C  0.27509401  0.28301611  0.59056627     0.29600
C848        C  0.27215730  0.30106394  0.60186816    -0.21200
C849        C  0.26681988  0.28924608  0.61574047    -0.09300
C850        C  0.26491978  0.25894653  0.61803152     0.29600
F851        F  0.26065029  0.24664326  0.63120047    -0.19800
H852        H  0.26580817  0.21758340  0.60859171     0.18000
H853        H  0.27389978  0.32424568  0.59970288     0.18000
F854        F  0.28044591  0.29508389  0.57733760    -0.19800
C855        C  0.19926027  0.14878973  0.56078945    -0.21200
C856        C  0.22584944  0.16931671  0.55408345    -0.09300
C857        C  0.22694497  0.16842992  0.53917183     0.29600
C858        C  0.20196306  0.14743247  0.53115930    -0.21200
C859        C  0.17547360  0.12650552  0.53781574    -0.09300
C860        C  0.17430587  0.12735085  0.55275288     0.29600
F861        F  0.14893220  0.10804645  0.55955737    -0.19800
H862        H  0.19793769  0.14912350  0.57227596     0.18000
H863        H  0.20347444  0.14726496  0.51967697     0.18000
F864        F  0.25203052  0.18837282  0.53232057    -0.19800
C865        C  0.00836069  0.10087350  0.74635752    -0.21200
C866        C  0.03494834  0.09927310  0.74732467    -0.09300
C867        C  0.06128109  0.12548914  0.74274016     0.29600
C868        C  0.06117873  0.15334276  0.73831722    -0.21200
C869        C  0.03487401  0.15555368  0.73812717    -0.09300
C870        C  0.00821011  0.12852214  0.74169218     0.29600
F871        F  0.98200682  0.12895488  0.74087869    -0.19800
H872        H  0.98758077  0.08085427  0.74941946     0.18000
H873        H  0.08205373  0.17376708  0.73568717     0.18000
F874        F  0.08745688  0.12497539  0.74305065    -0.19800
C875        C  0.08331349  0.25176791  0.70113706    -0.21200
C876        C  0.08109892  0.26197821  0.71505364    -0.09300
C877        C  0.10254375  0.29255728  0.72011668     0.29600
C878        C  0.12630087  0.31180585  0.71160996    -0.21200
C879        C  0.12909985  0.30104562  0.69793635    -0.09300
C880        C  0.10713430  0.27106973  0.69262349     0.29600
F881        F  0.10975457  0.25946763  0.67964106    -0.19800
H882        H  0.06708498  0.22828579  0.69703868     0.18000
H883        H  0.14308855  0.33482342  0.71589088     0.18000
F884        F  0.10176647  0.30299363  0.73361400    -0.19800
C885        C  0.02332766  0.25478328  0.76680455    -0.21200
C886        C  0.00807097  0.23808653  0.75438843    -0.09300
C887        C  0.47005762  0.21379738  0.75216616     0.29600
C888        C  0.45555178  0.21327977  0.76475310    -0.21200
C889        C  0.47172314  0.22734163  0.77742832    -0.09300
C890        C  0.50283394  0.24490201  0.77686467     0.29600
F891        F  0.51943164  0.25935551  0.78871334    -0.19800
H892        H  0.04726340  0.26589311  0.76731590     0.18000
H893        H  0.43163197  0.19973074  0.76474484     0.18000
F894        F  0.45390377  0.19690675  0.74054352    -0.19800
C895        C  0.13979264  0.06018215  0.75656427    -0.21200
C896        C  0.13771827  0.02953102  0.75666007    -0.09300
C897        C  0.10965027  0.00237536  0.75730344     0.29600
C898        C  0.08418232  0.00608011  0.75799617    -0.21200
C899        C  0.08633739  0.03685280  0.75790287    -0.09300
C900        C  0.11449751  0.06390643  0.75716861     0.29600
F901        F  0.11779700  0.09412124  0.75746643    -0.19800
H902        H  0.16120219  0.08144259  0.75605709     0.18000
H903        H  0.06276298  0.98486904  0.75855428     0.18000
F904        F  0.10693206  0.97244722  0.75772678    -0.19800
C905        C  0.26757048  0.08905353  0.76984770    -0.21200
C906        C  0.23970940  0.06868267  0.77533999    -0.09300
C907        C  0.23493215  0.07038318  0.78997814     0.29600
C908        C  0.25798826  0.09154724  0.79898746    -0.21200
C909        C  0.28622505  0.11153486  0.79358661    -0.09300
C910        C  0.29058523  0.11040964  0.77880136     0.29600
F911        F  0.31724024  0.12908312  0.77292826    -0.19800
H912        H  0.27150380  0.08849405  0.75855591     0.18000
H913        H  0.25384233  0.09171791  0.81026685     0.18000
F914        F  0.20823056  0.05077939  0.79564694    -0.19800
C915        C  0.20035159  0.48826681  0.71823388    -0.21200
C916        C  0.20745582  0.48919043  0.73267130    -0.09300
C917        C  0.22092953  0.47104863  0.73722057     0.29600
C918        C  0.22751890  0.45273954  0.72736923    -0.21200
C919        C  0.22101075  0.45254903  0.71288478    -0.09300
C920        C  0.20700804  0.47018786  0.70842824     0.29600
F921        F  0.19942301  0.46972814  0.69457224    -0.19800
H922        H  0.18105174  0.99896729  0.71844756     0.18000
H923        H  0.23819980  0.43923223  0.73100947     0.18000
F924        F  0.22747008  0.47079212  0.75117122    -0.19800
C925        C  0.46286777  0.44085246  0.77339407    -0.21200
C926        C  0.43728685  0.44431047  0.77450060    -0.09300
C927        C  0.43976577  0.47509864  0.77358630     0.29600
C928        C  0.46267936  0.00460704  0.77237664    -0.21200
C929        C  0.48614715  0.99792817  0.76962798    -0.09300
C930        C  0.48994860  0.46699665  0.77009987     0.29600
F931        F  0.51362823  0.46189834  0.76829965    -0.19800
H932        H  0.46152647  0.41737516  0.77399599     0.18000
H933        H  0.46540280  0.02853748  0.77111905     0.18000
F934        F  0.41569849  0.47956891  0.77521653    -0.19800
C935        C  0.37475392  0.33179225  0.80102293    -0.21200
C936        C  0.37213476  0.32984849  0.78615946    -0.09300
C937        C  0.36880512  0.30192617  0.77888402     0.29600
C938        C  0.37002997  0.27739486  0.78637548    -0.21200
C939        C  0.37422249  0.28005459  0.80125804    -0.09300
C940        C  0.37551803  0.30719762  0.80853784     0.29600
F941        F  0.37831909  0.31062631  0.82290875    -0.19800
H942        H  0.37698147  0.35294851  0.80682814     0.18000
H943        H  0.36862566  0.25676892  0.78043258     0.18000
F944        F  0.36615065  0.29915600  0.76449297    -0.19800
C945        C  0.34463476  0.39334872  0.72218703    -0.21200
C946        C  0.31462608  0.38552316  0.72285122    -0.09300
C947        C  0.29999122  0.37600683  0.73598364     0.29600
C948        C  0.31528366  0.37448839  0.74803157    -0.21200
C949        C  0.34522895  0.38251108  0.74718869    -0.09300
C950        C  0.35972631  0.39183075  0.73415045     0.29600
F951        F  0.38868659  0.39950074  0.73298905    -0.19800
H952        H  0.35661303  0.40048317  0.71232805     0.18000
H953        H  0.30396354  0.36772822  0.75807658     0.18000
F954        F  0.27106614  0.36829006  0.73727696    -0.19800
C955        C  0.03703511  0.26834631  0.86996055    -0.21200
C956        C  0.50883980  0.24694789  0.87265809    -0.09300
C957        C  0.00157483  0.25079395  0.88907415     0.29600
C958        C  0.02402907  0.27023268  0.89869308    -0.21200
C959        C  0.05307744  0.28891783  0.89409131    -0.09300
C960        C  0.05956317  0.28748593  0.87965311     0.29600
F961        F  0.08747316  0.30529514  0.87483203    -0.19800
H962        H  0.54513697  0.25740851  0.85838088     0.18000
H963        H  0.01872912  0.27058182  0.90982121     0.18000
F964        F  0.97379879  0.23345965  0.89409233    -0.19800
C965        C  0.07835287  0.39036522  0.92979629    -0.21200
C966        C  0.08778629  0.36891994  0.93473361    -0.09300
C967        C  0.09056181  0.36662317  0.94944091     0.29600
C968        C  0.08383859  0.38530665  0.95897600    -0.21200
C969        C  0.07450309  0.40694715  0.95409674    -0.09300
C970        C  0.07188437  0.40934483  0.93933862     0.29600
F971        F  0.06242143  0.42936674  0.93410397    -0.19800
H972        H  0.07599913  0.39240538  0.91848889     0.18000
H973        H  0.08613294  0.38290933  0.97025505     0.18000
F974        F  0.09889553  0.34560970  0.95462538    -0.19800
C975        C  0.20586756  0.34876553  0.91430442    -0.21200
C976        C  0.20473226  0.31845001  0.91368458    -0.09300
C977        C  0.17701455  0.29068310  0.91436391     0.29600
C978        C  0.15114233  0.29338670  0.91527157    -0.21200
C979        C  0.15235611  0.32368315  0.91568627    -0.09300
C980        C  0.17999916  0.35142528  0.91536846     0.29600
F981        F  0.18194919  0.38105752  0.91549145    -0.19800
H982        H  0.22685577  0.37057806  0.91391740     0.18000
H983        H  0.13000443  0.27170286  0.91552580     0.18000
F984        F  0.17469021  0.26089065  0.91372500    -0.19800
C985        C  0.28946123  0.26151672  0.92237412    -0.21200
C986        C  0.26168782  0.25990206  0.92008032    -0.09300
C987        C  0.23592472  0.23068383  0.92244642     0.29600
C988        C  0.23806684  0.20370767  0.92648274    -0.21200
C989        C  0.26577213  0.20508373  0.92827575    -0.09300
C990        C  0.29153588  0.23446341  0.92648120     0.29600
F991        F  0.31869130  0.23700947  0.92871402    -0.19800
H992        H  0.30969720  0.28374678  0.92094943     0.18000
H993        H  0.21789462  0.18126422  0.92765937     0.18000
F994        F  0.20853903  0.22759037  0.92038489    -0.19800
C995        C  0.34351303  0.14095081  0.89966884    -0.21200
C996        C  0.32763399  0.12373153  0.88735193    -0.09300
C997        C  0.29667617  0.10493567  0.88802869     0.29600
C998        C  0.28186955  0.10626905  0.90028852    -0.21200
C999        C  0.29775043  0.12644348  0.91186794    -0.09300
C1000       C  0.32868641  0.14252533  0.91178868     0.29600
F1001       F  0.34438613  0.16175137  0.92302381    -0.19800
H1002       H  0.36735325  0.15545005  0.89961996     0.18000
H1003       H  0.25789155  0.09364788  0.90031044     0.18000
F1004       F  0.28058929  0.08703324  0.87659539    -0.19800
C1005       C  0.20198585  0.06903793  0.94424667    -0.21200
C1006       C  0.22357871  0.09834037  0.95028004    -0.09300
C1007       C  0.22141578  0.10610552  0.96457897     0.29600
C1008       C  0.19703827  0.08570066  0.97246257    -0.21200
C1009       C  0.17425043  0.05751402  0.96614653    -0.09300
C1010       C  0.17733253  0.04879493  0.95206394     0.29600
F1011       F  0.15614861  0.02131749  0.94570468    -0.19800
H1012       H  0.20333535  0.06272225  0.93321492     0.18000
H1013       H  0.19520796  0.09293689  0.98328210     0.18000
F1014       F  0.24228855  0.13407013  0.97072933    -0.19800
C1015       C  0.33733361  0.42715512  0.89774997    -0.21200
C1016       C  0.36353178  0.42529386  0.89579438    -0.09300
C1017       C  0.36253733  0.39510813  0.89587939     0.29600
C1018       C  0.33604974  0.36757351  0.89874603    -0.21200
C1019       C  0.31009041  0.36963208  0.90157128    -0.09300
C1020       C  0.31086172  0.39974466  0.90060774     0.29600
F1021       F  0.28657121  0.40332029  0.90318394    -0.19800
H1022       H  0.33768241  0.45023213  0.89788696     0.18000
H1023       H  0.33610449  0.34475590  0.89913122     0.18000
F1024       F  0.38737273  0.39241515  0.89358250    -0.19800
C1025       C  0.42102432  0.02014650  0.86320797    -0.21200
C1026       C  0.42767312  0.02421869  0.87780405    -0.09300
C1027       C  0.43325292  0.05324370  0.88479915     0.29600
C1028       C  0.43117638  0.07725321  0.87734332    -0.21200
C1029       C  0.42373957  0.07291728  0.86276135    -0.09300
C1030       C  0.41932331  0.04420592  0.85569583     0.29600
F1031       F  0.41276839  0.03885428  0.84157773    -0.19800
H1032       H  0.41672517  0.99796903  0.85763128     0.18000
H1033       H  0.43478066  0.09898295  0.88310188     0.18000
F1034       F  0.43915136  0.05775256  0.89898458    -0.19800
C1035       C  0.48398583  0.49088841  0.91799223    -0.21200
C1036       C  0.45870645  0.49458563  0.91992449    -0.09300
C1037       C  0.44982386  0.49763986  0.93369881     0.29600
C1038       C  0.46563689  0.49624314  0.94542767    -0.21200
C1039       C  0.49053460  0.49152080  0.94366823    -0.09300
C1040       C  0.49994137  0.48943690  0.92977118     0.29600
F1041       F  0.52349225  0.48432334  0.92752695    -0.19800
H1042       H  0.49059883  0.48778549  0.90737732     0.18000
H1043       H  0.45634545  0.98422238  0.95253999     0.18000
F1044       F  0.42648113  0.98613103  0.93091176    -0.19800
C1045       C  0.28437662  0.12574977  0.10773292    -0.21200
C1046       C  0.30674798  0.11762871  0.10425177    -0.09300
C1047       C  0.30004121  0.08514445  0.10427749     0.29600
C1048       C  0.27091669  0.06128327  0.10635915    -0.21200
C1049       C  0.24824827  0.06948943  0.10850790    -0.09300
C1050       C  0.25536226  0.10192225  0.10978655     0.29600
F1051       F  0.23397326  0.11044653  0.11237000    -0.19800
H1052       H  0.28897898  0.15059909  0.10812023     0.18000
H1053       H  0.26570860  0.03627659  0.10534949     0.18000
F1054       F  0.32091228  0.07618099  0.10115258    -0.19800
C1055       C  0.17511102  0.46529772  0.13991001    -0.21200
C1056       C  0.16856847  0.46249441  0.12528845    -0.09300
C1057       C  0.15929640  0.43269251  0.11810467     0.29600
C1058       C  0.15888744  0.40706055  0.12521150    -0.21200
C1059       C  0.16789548  0.41075367  0.13951250    -0.09300
C1060       C  0.17494253  0.43972413  0.14699684     0.29600
F1061       F  0.18479414  0.44461480  0.16069592    -0.19800
H1062       H  0.18242864  0.48808942  0.14560677     0.18000
H1063       H  0.15350726  0.38498624  0.11925556     0.18000
F1064       F  0.15375240  0.42926873  0.10388765    -0.19800
C1065       C  0.16530188  0.51694350  0.07036039    -0.21200
C1066       C  0.15206275  0.51505498  0.08357313    -0.09300
C1067       C  0.12370945  0.00894457  0.08148837     0.29600
C1068       C  0.10837535  0.00771424  0.06900622    -0.21200
C1069       C  0.12168230  0.51230505  0.05804434    -0.09300
C1070       C  0.15041777  0.51547261  0.05775434     0.29600
F1071       F  0.16416908  0.51659835  0.04529919    -0.19800
H1072       H  0.18731757  0.51929873  0.06979728     0.18000
H1073       H  0.08502392  0.00065193  0.06960050     0.18000
F1074       F  0.10907488  0.00161728  0.09398322    -0.19800
C1075       C  0.35741555  0.24895726  0.06031316    -0.21200
C1076       C  0.34944147  0.26765661  0.06934407    -0.09300
C1077       C  0.34780785  0.26273606  0.08409038     0.29600
C1078       C  0.35157812  0.23790252  0.08948650    -0.21200
C1079       C  0.35852285  0.21862092  0.08044235    -0.09300
C1080       C  0.36226091  0.22469088  0.06586659     0.29600
F1081       F  0.36929421  0.20631634  0.05698673    -0.19800
H1082       H  0.35937595  0.25278975  0.04898564     0.18000
H1083       H  0.34919450  0.23374939  0.10079346     0.18000
F1084       F  0.34316626  0.28236663  0.09335757    -0.19800
C1085       C  0.30364110  0.34978327  0.10360738    -0.21200
C1086       C  0.27276666  0.33098213  0.10394853    -0.09300
C1087       C  0.25709436  0.31591416  0.09131086     0.29600
C1088       C  0.27260631  0.31695836  0.07889235    -0.21200
C1089       C  0.30367802  0.33419053  0.07886991    -0.09300
C1090       C  0.31897450  0.35181697  0.09113575     0.29600
F1091       F  0.34902571  0.36825377  0.09145427    -0.19800
H1092       H  0.31602173  0.36206320  0.11318709     0.18000
H1093       H  0.26058218  0.30279092  0.06957353     0.18000
F1094       F  0.22715003  0.29819443  0.09125892    -0.19800
C1095       C  0.43597579  0.41820466  0.04580808    -0.21200
C1096       C  0.43675396  0.41653475  0.03089382    -0.09300
C1097       C  0.41228178  0.39228515  0.02332082     0.29600
C1098       C  0.38806569  0.36956908  0.03064681    -0.21200
C1099       C  0.38773643  0.37104890  0.04550675    -0.09300
C1100       C  0.41165867  0.39561484  0.05308287     0.29600
F1101       F  0.41205341  0.39683803  0.06751441    -0.19800
H1102       H  0.45452777  0.43658347  0.05186761     0.18000
H1103       H  0.36982834  0.35034007  0.02475711     0.18000
F1104       F  0.41236754  0.38938823  0.00892942    -0.19800
C1105       C  0.41169753  0.12937211  0.09278270    -0.21200
C1106       C  0.41207894  0.15887637  0.09063958    -0.09300
C1107       C  0.43944144  0.18620434  0.08811117     0.29600
C1108       C  0.46553368  0.18397832  0.08784534    -0.21200
C1109       C  0.46518100  0.15463106  0.08999287    -0.09300
C1110       C  0.43798199  0.12716321  0.09236182     0.29600
F1111       F  0.43693836  0.09846031  0.09464595    -0.19800
H1112       H  0.39105066  0.10797015  0.09473819     0.18000
H1113       H  0.48621603  0.20537384  0.08590395     0.18000
F1114       F  0.44132872  0.21544153  0.08620131    -0.19800
C1115       C  0.08480382  0.18852678  0.11232049    -0.21200
C1116       C  0.06922108  0.20115373  0.10488606    -0.09300
C1117       C  0.07953906  0.23451029  0.10546062     0.29600
C1118       C  0.10488535  0.25478951  0.11354176    -0.21200
C1119       C  0.12000426  0.24202234  0.12132059    -0.09300
C1120       C  0.10984510  0.20861874  0.12049643     0.29600
F1121       F  0.12423113  0.19533240  0.12751504    -0.19800
H1122       H  0.07735943  0.16290720  0.11187938     0.18000
H1123       H  0.11222382  0.28037454  0.11402786     0.18000
F1124       F  0.06540801  0.24747093  0.09802518    -0.19800
C1125       C  0.01497958  0.06578298  0.05593578    -0.21200
C1126       C  0.03503011  0.08089778  0.04497434    -0.09300
C1127       C  0.05045526  0.11469499  0.04481724     0.29600
C1128       C  0.04591423  0.13283896  0.05549893    -0.21200
C1129       C  0.02574006  0.11765965  0.06635224    -0.09300
C1130       C  0.01020302  0.08401316  0.06651240     0.29600
F1131       F  0.48832669  0.06412995  0.07845163    -0.19800
H1132       H  0.00282277  0.03981268  0.05626192     0.18000
H1133       H  0.05810497  0.15883095  0.05530315     0.18000
F1134       F  0.07043983  0.13022944  0.03457452    -0.19800
C1135       C  0.04303279  0.68079367  0.09962808     0.03200
C1136       C  0.04646471  0.66165883  0.08893366    -0.12900
C1137       C  0.02229505  0.64043204  0.08037973     0.00700
C1138       C  0.99449469  0.63868875  0.08253236    -0.11500
C1139       C  0.99091803  0.65813771  0.09305921     0.03200
C1140       C  0.01521625  0.67894874  0.10165750    -0.10900
H1141       H  0.06788984  0.66283729  0.08745375     0.08800
H1142       H  0.48136036  0.61768175  0.07460447     0.06300
H1143       H  0.01259444  0.69414121  0.10974567     0.06200
C1144       C  0.35859202  0.83481723  0.05114069     0.03200
C1145       C  0.33908584  0.83781766  0.06080347    -0.12900
C1146       C  0.32063135  0.81169961  0.06903575     0.00700
C1147       C  0.32132606  0.78261783  0.06726547    -0.11500
C1148       C  0.34151623  0.77982640  0.05811858     0.03200
C1149       C  0.35967976  0.80578243  0.04980743    -0.10900
H1150       H  0.33972289  0.86086593  0.06256752     0.08800
H1151       H  0.30808281  0.76303775  0.07416478     0.06300
H1152       H  0.37592915  0.80410134  0.04297540     0.06200
C1153       C  0.17078342  0.01888245  0.09391424     0.03200
C1154       C  0.19791481  0.54274879  0.09852585    -0.12900
C1155       C  0.21634947  0.54311798  0.10962991     0.00700
C1156       C  0.20563393  0.51757454  0.11890437    -0.11500
C1157       C  0.17866040  0.99108251  0.11338399     0.03200
C1158       C  0.16066544  0.99186252  0.10238867    -0.10900
H1159       H  0.20654198  0.56158873  0.09083992     0.08800
H1160       H  0.22031563  0.51700409  0.12702442     0.06300
H1161       H  0.13963224  0.97082581  0.09995858     0.06200
C1162       C  0.38306076  0.65519723  0.08950520     0.80300
N1163       N  0.38044948  0.67585975  0.08063663    -0.78000
C1164       C  0.35450081  0.67629818  0.07915843     0.82700
N1165       N  0.33111544  0.65627107  0.08685115    -0.78000
C1166       C  0.33304086  0.63547767  0.09584846     0.82800
N1167       N  0.35910902  0.63459326  0.09707349    -0.79700
C1168       C  0.42067035  0.51144038  0.88942142     0.03200
C1169       C  0.39999242  0.96712534  0.88450263    -0.12900
C1170       C  0.39593387  0.94171994  0.89309444     0.00700
C1171       C  0.41849446  0.94563984  0.90249703    -0.11500
C1172       C  0.44405002  0.97522888  0.90409927     0.03200
C1173       C  0.44218868  0.51591373  0.89974194    -0.10900
H1174       H  0.38214329  0.96438461  0.87749384     0.08800
H1175       H  0.41486775  0.92675089  0.90975813     0.06300
H1176       H  0.46103474  0.53946678  0.90165932     0.06200
C1177       C  0.24381648  0.61882547  0.94288792     0.03200
C1178       C  0.25760546  0.60973863  0.93219125    -0.12900
C1179       C  0.27539890  0.63215957  0.92238081     0.00700
C1180       C  0.27953007  0.66358134  0.92324151    -0.11500
C1181       C  0.26527947  0.67259345  0.93367880     0.03200
C1182       C  0.24782831  0.65027911  0.94364132    -0.10900
H1183       H  0.25344117  0.58506557  0.93112328     0.08800
H1184       H  0.29204429  0.68026548  0.91508740     0.06300
H1185       H  0.23572847  0.65675554  0.95136106     0.06200
C1186       C  0.23391399  0.81496132  0.91410168     0.80300
N1187       N  0.23444888  0.78876504  0.91932566    -0.78000
C1188       C  0.26002257  0.78685316  0.91949408     0.82700
N1189       N  0.28491056  0.81121691  0.91425761    -0.78000
C1190       C  0.28463722  0.83735361  0.90894104     0.82800
N1191       N  0.25909679  0.83914757  0.90895561    -0.79700
C1192       C  0.09641088  0.84952419  0.92196862     0.03200
C1193       C  0.07478195  0.83091734  0.91167938    -0.12900
C1194       C  0.07948186  0.81068662  0.90202621     0.00700
C1195       C  0.10599453  0.80920312  0.90266747    -0.11500
C1196       C  0.12776739  0.82761765  0.91289001     0.03200
C1197       C  0.12300514  0.84795631  0.92242223    -0.10900
H1198       H  0.05402564  0.83166599  0.91134721     0.08800
H1199       H  0.10946455  0.79322346  0.89535995     0.06300
H1200       H  0.13980429  0.86215365  0.93035248     0.06200
Zr1201     Zr  0.03896681  0.98876638  0.02563901     2.17500
O1202       O  0.02080902  0.96269169  0.04823275    -0.51300
O1203       O  0.03476349  0.53514276  0.03964421    -0.74500
O1204       O  0.07827314  0.99932839  0.04284952    -0.81200
O1205       O  0.45866526  0.93439972  0.00984520    -0.83000
O1206       O  0.12102754  0.51906982  0.03317715    -0.78600
O1207       O  0.48259935  0.94735970  0.03123721    -0.90200
O1208       O  0.04913877  0.57611087  0.02441687    -0.76200
O1209       O  0.07950683  0.53795995  0.01901054    -0.85700
O1210       O  0.01790281  0.00825623  0.00846706    -0.85400
O1211       O  0.07320258  0.97223592  0.01594597    -0.72100
O1212       O  0.01687102  0.94612155  0.00793272    -0.84300
Zr1213     Zr  0.06984999  0.99707119  0.97134504     2.26400
Zr1214     Zr  0.11076615  0.51928563  0.00806481     2.06300
Zr1215     Zr  0.49422153  0.96131385  0.99145872     2.10000
Zr1216     Zr  0.05977391  0.55853101  0.00173396     1.78800
O1217       O  0.45479820  0.91046901  0.98197951    -0.93100
O1218       O  0.10483331  0.60788536  0.00800419    -0.40900
O1219       O  0.03635754  0.51800316  0.98337324    -0.77500
O1220       O  0.09182486  0.54101319  0.99064299    -0.96200
O1221       O  0.09108919  0.97811220  0.98854902    -0.89500
O1222       O  0.02996951  0.94960704  0.98029408    -0.92400
C1223       C  0.04013863  0.56360773  0.03654585     1.01400
C1224       C  0.45911214  0.93266412  0.02341226     1.14300
C1225       C  0.10665852  0.01283688  0.04259690     1.05100
O1226       O  0.14846421  0.57415916  0.01389547    -0.94500
O1227       O  0.14630713  0.53777338  0.98920314    -0.90300
O1228       O  0.12004868  0.52494006  0.96846968    -0.83400
C1229       C  0.14439948  0.53739779  0.97562067     1.11700
O1230       O  0.03617279  0.89325530  0.01690376    -0.96500
Zr1231     Zr  0.05144194  0.93115994  0.99772208     1.88900
O1232       O  0.07431677  0.95351570  0.95945998    -0.73100
O1233       O  0.14319928  0.99466859  0.00867010    -0.52400
O1234       O  0.09119114  0.91981442  0.00455558    -0.97100
O1235       O  0.01124000  0.87813601  0.99099562    -0.54300
O1236       O  0.06677594  0.91606834  0.97576358    -0.73700
C1237       C  0.07322159  0.92717061  0.96324874     0.98700
O1238       O  0.07936656  0.52896602  0.95135138    -0.62500
O1239       O  0.46148696  0.98534908  0.99087291    -0.57300
O1240       O  0.03197046  0.98648373  0.95365760    -0.94000
O1241       O  0.48819079  0.96776088  0.96641526    -0.92400
O1242       O  0.02244135  0.57405367  0.99546527    -0.92700
O1243       O  0.07468911  0.59835291  0.98337460    -0.91500
C1244       C  0.00403636  0.97658387  0.95405920     1.17500
H1245       H  0.00303436  0.01275363  0.01263279     0.33500
H1246       H  0.10775158  0.55943269  0.98640661     0.44300
H1247       H  0.02029285  0.93376915  0.97284629     0.37900
H1248       H  0.08090535  0.96403131  0.02320127     0.34300
H1249       H  0.10894418  0.60565983  0.01807162     0.26100
H1250       H  0.16302548  0.51499911  0.01458586     0.32100
H1251       H  0.10675676  0.93045168  0.99740428     0.38000
H1252       H  0.02820080  0.59441277  0.00092091     0.32400
H1253       H  0.46818379  0.99980918  0.98272789     0.31300
H1254       H  0.43697298  0.91343519  0.98175515     0.33000
H1255       H  0.02070840  0.86414777  0.99029674     0.32000
H1256       H  0.08214432  0.58972583  0.97559603     0.36000
H1257       H  0.09197161  0.55164196  0.95451159     0.28700
H1258       H  0.02917263  0.98002146  0.05568988     0.32900
H1259       H  0.03933984  0.90657604  0.02568961     0.35800
H1260       H  0.44200578  0.96757374  0.98773938     0.28400
H1261       H  0.09257866  0.52304879  0.94583925     0.41300
H1262       H  0.16607394  0.57225438  0.01679777     0.31300
H1263       H  0.12075973  0.60633903  0.00267802     0.38900
H1264       H  0.00605037  0.87984647  0.98105071     0.30800
H1265       H  0.13604454  0.98165908  0.01725827     0.30800
H1266       H  0.03063991  0.94937896  0.04973310     0.31100
C1267       C  0.36513287  0.86485277  0.77914526     0.03200
C1268       C  0.34676173  0.86505858  0.76811675    -0.12900
C1269       C  0.35465840  0.89340752  0.76077066     0.00700
C1270       C  0.38058997  0.92136991  0.76471772    -0.11500
C1271       C  0.39952155  0.92117187  0.77536252     0.03200
C1272       C  0.39135727  0.89299440  0.78274045    -0.10900
H1273       H  0.32719593  0.84303752  0.76489778     0.08800
H1274       H  0.38714213  0.94280789  0.75867153     0.06300
H1275       H  0.40624348  0.89242725  0.79075445     0.06200
C1276       C  0.20162264  0.51008363  0.74268699     0.03200
C1277       C  0.22374856  0.53083774  0.75234317    -0.12900
C1278       C  0.21875179  0.55170374  0.76137336     0.00700
C1279       C  0.19205084  0.55249884  0.76058384    -0.11500
C1280       C  0.17013272  0.53260929  0.75079854     0.03200
C1281       C  0.17468970  0.51104101  0.74198377    -0.10900
H1282       H  0.24498627  0.53119058  0.75271390     0.08800
H1283       H  0.18849194  0.56903228  0.76750525     0.06300
H1284       H  0.15755841  0.49553510  0.73443404     0.06200
C1285       C  0.05031686  0.73835931  0.72171948     0.03200
C1286       C  0.03493778  0.74795627  0.73130946    -0.12900
C1287       C  0.01713545  0.72685306  0.74152496     0.00700
C1288       C  0.01448780  0.69610200  0.74219697    -0.11500
C1289       C  0.02959963  0.68603408  0.73264620     0.03200
C1290       C  0.04703805  0.70718087  0.72220738    -0.10900
H1291       H  0.03775356  0.77214727  0.73121461     0.08800
H1292       H  0.50761789  0.67973844  0.75283696     0.06300
H1293       H  0.05954068  0.70012478  0.71500199     0.06200
C1294       C  0.06502699  0.54618734  0.75299824     0.80300
N1295       N  0.04147469  0.52308674  0.75963378    -0.78000
C1296       C  0.01624134  0.52505656  0.76118350     0.82700
N1297       N  0.01458263  0.55054060  0.75591779    -0.78000
C1298       C  0.03795299  0.57400708  0.74921210     0.82800
N1299       N  0.06321446  0.57168232  0.74778742    -0.79700
Zr1300     Zr  0.38293524  0.69611479  0.80547275     2.17500
O1301       O  0.38163461  0.69062674  0.77958408    -0.51300
O1302       O  0.37213362  0.74007554  0.80060108    -0.74500
O1303       O  0.33432435  0.65800239  0.79586514    -0.81200
O1304       O  0.46800092  0.73543260  0.80414059    -0.83000
O1305       O  0.30404196  0.63213618  0.81399639    -0.78600
O1306       O  0.42634719  0.71601979  0.79049313    -0.90200
O1307       O  0.37296412  0.76572610  0.82138308    -0.76200
O1308       O  0.35287726  0.69767751  0.82443728    -0.85700
O1309       O  0.41523796  0.73976662  0.82082129    -0.85400
O1310       O  0.36380635  0.64422024  0.81601510    -0.72100
O1311       O  0.42047221  0.68299553  0.81300222    -0.84300
Zr1312     Zr  0.40362339  0.67748055  0.85865847     2.26400
Zr1313     Zr  0.33447875  0.64665060  0.83536046     2.06300
Zr1314     Zr  0.45233936  0.72639521  0.82866457     2.10000
Zr1315     Zr  0.38534970  0.74047290  0.84009392     1.78800
O1316       O  0.49681550  0.72124674  0.82470201    -0.93100
O1317       O  0.33965719  0.73982832  0.84769016    -0.40900
O1318       O  0.42341542  0.72892428  0.84807925    -0.77500
O1319       O  0.36564453  0.69003428  0.85132928    -0.96200
O1320       O  0.37153947  0.63376372  0.84333916    -0.89500
O1321       O  0.43354922  0.67577659  0.83974240    -0.92400
C1322       C  0.36943243  0.76191491  0.80789443     1.01400
C1323       C  0.45459615  0.72907382  0.79203609     1.14300
C1324       C  0.30918064  0.63769659  0.80074879     1.05100
O1325       O  0.29085060  0.65282892  0.84029755    -0.94500
O1326       O  0.32019409  0.63056123  0.85963999    -0.90300
O1327       O  0.36152660  0.64588567  0.87324645    -0.83400
C1328       C  0.33335734  0.63287453  0.87156010     1.11700
O1329       O  0.39898577  0.60952444  0.80057563    -0.96500
Zr1330     Zr  0.40148080  0.63253706  0.82437415     1.88900
O1331       O  0.41282849  0.63350793  0.86472585    -0.73100
O1332       O  0.30545284  0.58825271  0.83402130    -0.52400
O1333       O  0.36343957  0.57650635  0.82174600    -0.97100
O1334       O  0.44801929  0.63340775  0.81832642    -0.54300
O1335       O  0.41043347  0.60628716  0.84413181    -0.73700
C1336       C  0.41385147  0.61043466  0.85767214     0.98700
O1337       O  0.40774922  0.70269955  0.88216868    -0.62500
O1338       O  0.48066666  0.78474095  0.82818168    -0.57300
O1339       O  0.45378843  0.70764618  0.86783644    -0.94000
O1340       O  0.48200288  0.73972244  0.85036767    -0.92400
O1341       O  0.42394933  0.79609483  0.84313818    -0.92700
O1342       O  0.38707876  0.76463451  0.86351665    -0.91500
C1343       C  0.47827560  0.72976684  0.86314668     1.17500
H1344       H  0.42409179  0.75980989  0.81586504     0.33500
H1345       H  0.35461353  0.69124672  0.85948347     0.44300
H1346       H  0.44935533  0.67239537  0.84326026     0.37900
H1347       H  0.35205413  0.62693254  0.80935871     0.34300
H1348       H  0.34130523  0.76044695  0.84460231     0.26100
H1349       H  0.28457969  0.58387791  0.83394785     0.32100
H1350       H  0.35682742  0.56968756  0.83152978     0.38000
H1351       H  0.43276158  0.80231925  0.83364681     0.32400
H1352       H  0.99180306  0.79272010  0.83718954     0.31300
H1353       H  0.01761240  0.73913810  0.82166712     0.33000
H1354       H  0.45744095  0.63357361  0.82752568     0.32000
H1355       H  0.40422541  0.76488999  0.86842890     0.36000
H1356       H  0.42108190  0.72591686  0.88091182     0.28700
H1357       H  0.36648168  0.69633093  0.77630159     0.32900
H1358       H  0.40431514  0.59217091  0.80174880     0.35800
H1359       H  0.49976521  0.78896520  0.82391055     0.28400
H1360       H  0.38827199  0.70157058  0.88390752     0.41300
H1361       H  0.29561339  0.66571122  0.84930627     0.31300
H1362       H  0.32402693  0.72333423  0.84143186     0.38900
H1363       H  0.46049843  0.65509866  0.81463151     0.30800
H1364       H  0.30861274  0.58194936  0.82430885     0.30800
H1365       H  0.37340073  0.66735359  0.77729370     0.31100
C1366       C  0.25384158  0.69390636  0.56366280     0.03200
C1367       C  0.28100123  0.69377222  0.56210892    -0.12900
C1368       C  0.30545924  0.71373064  0.57082601     0.00700
C1369       C  0.30271519  0.73434095  0.58101703    -0.11500
C1370       C  0.27580863  0.73492435  0.58269377     0.03200
C1371       C  0.25131778  0.71443112  0.57404433    -0.10900
H1372       H  0.28297557  0.67777376  0.55422608     0.08800
H1373       H  0.32147921  0.74964762  0.58783306     0.06300
H1374       H  0.23033665  0.71435964  0.57542027     0.06200
C1375       C  0.12785443  0.84859277  0.56761735     0.03200
C1376       C  0.09937419  0.82300374  0.56509523    -0.12900
C1377       C  0.08099308  0.82436816  0.55445796     0.00700
C1378       C  0.09173937  0.85125743  0.54588961    -0.11500
C1379       C  0.12061332  0.87683492  0.54804093     0.03200
C1380       C  0.13855861  0.87534842  0.55894485    -0.10900
H1381       H  0.09079877  0.80273456  0.57205197     0.08800
H1382       H  0.07722098  0.85288200  0.53798000     0.06300
H1383       H  0.16018496  0.89567836  0.56113862     0.06200
C1384       C  0.43157643  0.51738677  0.60840628     0.03200
C1385       C  0.42905181  0.54566196  0.60778182    -0.12900
C1386       C  0.44735413  0.57025118  0.59880119     0.00700
C1387       C  0.46841270  0.56653564  0.59065563    -0.11500
C1388       C  0.47041378  0.53812272  0.59087544     0.03200
C1389       C  0.45192540  0.51345688  0.59973472    -0.10900
H1390       H  0.41248949  0.54818654  0.61402225     0.08800
H1391       H  0.98170034  0.58515694  0.58405766     0.06300
H1392       H  0.45196425  0.99548593  0.60292312     0.06200
C1393       C  0.41574814  0.70841156  0.57216461     0.80300
N1394       N  0.41574418  0.68343756  0.57901128    -0.78000
C1395       C  0.44108466  0.68145552  0.58055293     0.82700
N1396       N  0.46634938  0.70425431  0.57486897    -0.78000
C1397       C  0.46685953  0.72912649  0.56784766     0.82800
N1398       N  0.44149355  0.73138515  0.56666002    -0.79700
Zr1399     Zr  0.22580839  0.86659612  0.69149696     2.17500
O1400       O  0.21146961  0.82625610  0.70963159    -0.51300
O1401       O  0.21947551  0.90707243  0.70518293    -0.74500
O1402       O  0.26392080  0.88193722  0.70973411    -0.81200
O1403       O  0.14839707  0.81942885  0.67471905    -0.83000
O1404       O  0.30779881  0.90288592  0.69832073    -0.78600
O1405       O  0.17340026  0.83534883  0.69586060    -0.90200
O1406       O  0.22600310  0.94625987  0.68997185    -0.76200
O1407       O  0.26313352  0.91700686  0.68366921    -0.85700
O1408       O  0.20222701  0.88426610  0.67484649    -0.85400
O1409       O  0.26282487  0.85528137  0.68131482    -0.72100
O1410       O  0.20651456  0.82561629  0.67301299    -0.84300
Zr1411     Zr  0.25792929  0.88310529  0.63737133     2.26400
Zr1412     Zr  0.29956738  0.90589392  0.67303122     2.06300
Zr1413     Zr  0.18400396  0.84431179  0.65612224     2.10000
Zr1414     Zr  0.23957577  0.93401634  0.66675889     1.78800
O1415       O  0.14997846  0.78954922  0.64806221    -0.93100
O1416       O  0.27853621  0.98773470  0.67348175    -0.40900
O1417       O  0.22097729  0.89448772  0.64767587    -0.77500
O1418       O  0.27689985  0.92431016  0.65594371    -0.96200
O1419       O  0.28149024  0.86576355  0.65421811    -0.89500
O1420       O  0.22047501  0.83319539  0.64556305    -0.92400
C1421       C  0.22003058  0.93365377  0.70223889     1.01400
C1422       C  0.14959620  0.82007259  0.68834834     1.14300
C1423       C  0.29213893  0.89358686  0.70960190     1.05100
O1424       O  0.33099857  0.96124887  0.68120713    -0.94500
O1425       O  0.33511288  0.93175485  0.65452194    -0.90300
O1426       O  0.31073726  0.91513306  0.63322277    -0.83400
C1427       C  0.33420690  0.93145308  0.64088891     1.11700
O1428       O  0.23325571  0.77802865  0.68131046    -0.96500
Zr1429     Zr  0.24399792  0.81592168  0.66233685     1.88900
O1430       O  0.26477995  0.84210911  0.62405619    -0.73100
O1431       O  0.33909074  0.89155470  0.67526320    -0.52400
O1432       O  0.28769168  0.81039734  0.66782650    -0.97100
O1433       O  0.20441033  0.76248705  0.65562364    -0.54300
O1434       O  0.25802338  0.80312718  0.63942474    -0.73700
C1435       C  0.26384555  0.81529759  0.62707466     0.98700
O1436       O  0.26766701  0.92077238  0.61829468    -0.62500
O1437       O  0.14761740  0.86316084  0.65379665    -0.57300
O1438       O  0.21896870  0.86639754  0.61929866    -0.94000
O1439       O  0.17545955  0.84628880  0.63099518    -0.92400
O1440       O  0.19651834  0.94065722  0.66117001    -0.92700
O1441       O  0.25040939  0.97353714  0.64856887    -0.91500
C1442       C  0.19070451  0.85479417  0.61962318     1.17500
H1443       H  0.18622972  0.88671623  0.67912228     0.33500
H1444       H  0.29148233  0.94445176  0.65211715     0.44300
H1445       H  0.21177462  0.81761064  0.63780304     0.37900
H1446       H  0.27100848  0.84728341  0.68843197     0.34300
H1447       H  0.26799808  0.00019589  0.67571988     0.26100
H1448       H  0.33254365  0.87539943  0.68275084     0.32100
H1449       H  0.28653977  0.79316975  0.66123125     0.38000
H1450       H  0.18852443  0.94290495  0.67046116     0.32400
H1451       H  0.15647563  0.88102454  0.64711617     0.31300
H1452       H  0.13201185  0.79041064  0.64485490     0.33000
H1453       H  0.20047499  0.76340348  0.64539908     0.32000
H1454       H  0.24814238  0.96149175  0.63947408     0.36000
H1455       H  0.25079450  0.92544392  0.61833790     0.28700
H1456       H  0.21281039  0.83777517  0.71877149     0.32900
H1457       H  0.23546999  0.75993881  0.67705144     0.35800
H1458       H  0.13088735  0.84570681  0.64839967     0.28400
H1459       H  0.28451592  0.94131469  0.62169331     0.41300
H1460       H  0.34837340  0.96109273  0.68567572     0.31300
H1461       H  0.28604138  0.98529487  0.68280508     0.38900
H1462       H  0.18668027  0.76104818  0.66043215     0.30800
H1463       H  0.33775333  0.87916162  0.66638689     0.30800
H1464       H  0.22768459  0.82057108  0.71004974     0.31100
C1465       C  0.38525415  0.85738950  0.43234865     0.03200
C1466       C  0.35923114  0.85978946  0.43405122    -0.12900
C1467       C  0.33409314  0.84047169  0.42567988     0.00700
C1468       C  0.33511564  0.81876915  0.41551270    -0.11500
C1469       C  0.36110064  0.81636986  0.41366046     0.03200
C1470       C  0.38613474  0.83566000  0.42215573    -0.10900
H1471       H  0.35859490  0.87676654  0.44184286     0.08800
H1472       H  0.31581363  0.80408082  0.40888871     0.06300
H1473       H  0.40632440  0.83401751  0.42073831     0.06200
C1474       C  0.51338460  0.71230523  0.42779123     0.03200
C1475       C  0.04056756  0.73105217  0.43160645    -0.12900
C1476       C  0.05863354  0.72944220  0.44235667     0.00700
C1477       C  0.04805514  0.70171333  0.45034252    -0.11500
C1478       C  0.01979007  0.67558792  0.44752358     0.03200
C1479       C  0.50324496  0.68517256  0.43624008    -0.10900
H1480       H  0.04887735  0.75220594  0.42521123     0.08800
H1481       H  0.06229712  0.69994500  0.45836641     0.06300
H1482       H  0.48212605  0.66427572  0.43379533     0.06200
C1483       C  0.19941199  0.52488047  0.38506896     0.03200
C1484       C  0.17843907  0.52775526  0.39364984    -0.12900
C1485       C  0.15888614  0.50174804  0.40166448     0.00700
C1486       C  0.16148796  0.97541446  0.40234470    -0.11500
C1487       C  0.18099866  0.97118668  0.39321634     0.03200
C1488       C  0.20109765  0.49617912  0.38460324    -0.10900
H1489       H  0.17855745  0.55067454  0.39477112     0.08800
H1490       H  0.14895461  0.95692486  0.40982583     0.06300
H1491       H  0.21840113  0.49472759  0.37853696     0.06200
C1492       C  0.22552056  0.84841881  0.42544013     0.80300
N1493       N  0.20100817  0.82661308  0.43223163    -0.78000
C1494       C  0.17479035  0.82681985  0.43071495     0.82700
N1495       N  0.17310343  0.84837397  0.42212425    -0.78000
C1496       C  0.19708019  0.86985404  0.41511912     0.82800
N1497       N  0.22335245  0.86995617  0.41689745    -0.79700
Zr1498     Zr  0.09190894  0.52930802  0.52517520     2.17500
O1499       O  0.09129743  0.01366114  0.54971842    -0.51300
O1500       O  0.13578786  0.57840913  0.53313971    -0.74500
O1501       O  0.11488135  0.99653757  0.52763969    -0.81200
O1502       O  0.02393931  0.54067001  0.53292369    -0.83000
O1503       O  0.12730693  0.98486807  0.50590874    -0.78600
O1504       O  0.05949589  0.53220582  0.54339508    -0.90200
O1505       O  0.15386015  0.61272156  0.51505030    -0.76200
O1506       O  0.12437542  0.54730429  0.50550027    -0.85700
O1507       O  0.08536861  0.57172090  0.51569580    -0.85400
O1508       O  0.07257555  0.98289336  0.50821414    -0.72100
O1509       O  0.04072581  0.50608979  0.51810717    -0.84300
Zr1510     Zr  0.05076513  0.52129143  0.47206279     2.26400
Zr1511     Zr  0.10688801  0.50151848  0.48934256     2.06300
Zr1512     Zr  0.03461081  0.54824211  0.50795805     2.10000
Zr1513     Zr  0.11742657  0.58942583  0.49594095     1.78800
O1514       O  0.48053753  0.52727507  0.50862368    -0.93100
O1515       O  0.16517208  0.60924921  0.48443883    -0.40900
O1516       O  0.06691325  0.56714676  0.48814437    -0.77500
O1517       O  0.10211823  0.54493272  0.47939618    -0.96200
O1518       O  0.05620482  0.47853318  0.48177127    -0.89500
O1519       O  0.01785275  0.50328811  0.49158369    -0.92400
C1520       C  0.15504363  0.60484406  0.52786035     1.01400
C1521       C  0.03624027  0.53574980  0.54372277     1.14300
C1522       C  0.12636577  0.98321992  0.51951059     1.05100
O1523       O  0.15887921  0.52167935  0.48369724    -0.94500
O1524       O  0.11299912  0.50167484  0.46371854    -0.90300
O1525       O  0.07929019  0.51310928  0.45326495    -0.83400
C1526       C  0.10094334  0.50676732  0.45281924     1.11700
O1527       O  0.50670595  0.92393309  0.52092732    -0.96500
Zr1528     Zr  0.02204364  0.96066574  0.50079155     1.88900
O1529       O  0.00662671  0.47193000  0.46416791    -0.73100
O1530       O  0.10173364  0.95521032  0.47884473    -0.52400
O1531       O  0.02215161  0.91083499  0.49351705    -0.97100
O1532       O  0.46908631  0.94393155  0.50948910    -0.54300
O1533       O  0.48687525  0.93403764  0.48020219    -0.73700
C1534       C  0.98649633  0.94651507  0.46844377     0.98700
O1535       O  0.05095488  0.53609893  0.44739635    -0.62500
O1536       O  0.04311361  0.60022245  0.51778653    -0.57300
O1537       O  0.02766007  0.55537116  0.46847037    -0.94000
O1538       O  0.01662278  0.57018086  0.48981620    -0.92400
O1539       O  0.11509435  0.63749822  0.50405710    -0.92700
O1540       O  0.12385287  0.62340900  0.47587558    -0.91500
C1541       C  0.01750360  0.57063768  0.47620148     1.17500
H1542       H  0.09003025  0.58860187  0.52266344     0.33500
H1543       H  0.11498245  0.55355668  0.47141516     0.44300
H1544       H  0.99764451  0.49636353  0.48869418     0.37900
H1545       H  0.07349146  0.96468010  0.51201384     0.34300
H1546       H  0.17663798  0.63194379  0.48782614     0.26100
H1547       H  0.12227503  0.95851115  0.47884002     0.32100
H1548       H  0.53640024  0.90977575  0.50019058     0.38000
H1549       H  0.09776673  0.63641043  0.49896358     0.32400
H1550       H  0.04504370  0.61343439  0.50948588     0.31300
H1551       H  0.47728971  0.54158261  0.51542899     0.33000
H1552       H  0.45884238  0.94884448  0.50180362     0.32000
H1553       H  0.11294278  0.60815928  0.46791529     0.36000
H1554       H  0.02992398  0.52784860  0.44463496     0.28700
H1555       H  0.11267681  0.02257783  0.55191277     0.32900
H1556       H  0.48826717  0.90416350  0.51821055     0.35800
H1557       H  0.02402920  0.59599530  0.52206343     0.28400
H1558       H  0.05977102  0.55982020  0.44750741     0.41300
H1559       H  0.16521372  0.54331276  0.47997638     0.31300
H1560       H  0.17484031  0.59817533  0.48914739     0.38900
H1561       H  0.47237374  0.96013629  0.51713466     0.30800
H1562       H  0.09163888  0.93923411  0.48622476     0.30800
H1563       H  0.08318133  0.99003142  0.54960008     0.31100
C1564       C  0.40807380  0.00067039  0.23202395     0.03200
C1565       C  0.40642465  0.02281533  0.24170667    -0.12900
C1566       C  0.42630023  0.53452085  0.25080399     0.00700
C1567       C  0.45370721  0.53543704  0.24885058    -0.11500
C1568       C  0.45946168  0.01963484  0.23909065     0.03200
C1569       C  0.43457314  0.99918307  0.23074043    -0.10900
H1570       H  0.38567350  0.02334415  0.24290054     0.08800
H1571       H  0.47242137  0.55126820  0.25558497     0.06300
H1572       H  0.43582427  0.98227044  0.22313454     0.06200
C1573       C  0.27710799  0.65464719  0.23684274     0.03200
C1574       C  0.24935015  0.62833803  0.23377813    -0.12900
C1575       C  0.23144170  0.62911282  0.22273200     0.00700
C1576       C  0.24179726  0.65662748  0.21456336    -0.11500
C1577       C  0.26991506  0.68304594  0.21742021     0.03200
C1578       C  0.28750722  0.68181708  0.22850803    -0.10900
H1579       H  0.24103369  0.60771369  0.24051718     0.08800
H1580       H  0.22767428  0.65790343  0.20633415     0.06300
H1581       H  0.30870178  0.70253859  0.23102920     0.06200
C1582       C  0.08804291  0.82478573  0.27734620     0.03200
C1583       C  0.10699864  0.81950742  0.26814108    -0.12900
C1584       C  0.12657837  0.84424632  0.25956083     0.00700
C1585       C  0.12693570  0.87397971  0.26006476    -0.11500
C1586       C  0.10701992  0.87891938  0.26856321     0.03200
C1587       C  0.08805231  0.85451146  0.27741968    -0.10900
H1588       H  0.10595316  0.79610077  0.26736657     0.08800
H1589       H  0.14085864  0.89229032  0.25277244     0.06300
H1590       H  0.07222385  0.85806374  0.28381557     0.06200
C1591       C  0.06670188  0.50723731  0.24054366     0.80300
N1592       N  0.09127399  0.52985663  0.23414948    -0.78000
C1593       C  0.11683798  0.52792230  0.23422137     0.82700
N1594       N  0.12184422  0.00875134  0.24159679    -0.78000
C1595       C  0.09747512  0.98627614  0.24800746     0.82800
N1596       N  0.07165025  0.98727227  0.24680498    -0.79700
Zr1597     Zr  0.24685077  0.83927080  0.19183817     2.17500
O1598       O  0.24933342  0.82664305  0.21661990    -0.51300
O1599       O  0.29100793  0.88702326  0.20060547    -0.74500
O1600       O  0.26991376  0.80506873  0.19500695    -0.81200
O1601       O  0.18128225  0.85478650  0.19907994    -0.83000
O1602       O  0.28089361  0.78994794  0.17371862    -0.78600
O1603       O  0.21256431  0.84001843  0.20964890    -0.90200
O1604       O  0.30907209  0.92365477  0.18333645    -0.76200
O1605       O  0.28023260  0.85643625  0.17252862    -0.85700
O1606       O  0.24411498  0.88405411  0.18237899    -0.85400
O1607       O  0.22826630  0.79327663  0.17561958    -0.72100
O1608       O  0.19644134  0.81952143  0.18428396    -0.84300
Zr1609     Zr  0.20977538  0.83584577  0.13823393     2.26400
Zr1610     Zr  0.26160214  0.81134805  0.15605871     2.06300
Zr1611     Zr  0.19405051  0.86384753  0.17425748     2.10000
Zr1612     Zr  0.27690897  0.90052788  0.16280566     1.78800
O1613       O  0.14105201  0.84411405  0.17678959    -0.93100
O1614       O  0.32565032  0.91263845  0.15399332    -0.40900
O1615       O  0.22707677  0.88128220  0.15460933    -0.77500
O1616       O  0.26056174  0.85665602  0.14591548    -0.96200
O1617       O  0.21148114  0.79098649  0.14810071    -0.89500
O1618       O  0.17611420  0.81930607  0.15758252    -0.92400
C1619       C  0.30985409  0.91436856  0.19589658     1.01400
C1620       C  0.19056878  0.84587847  0.20983576     1.14300
C1621       C  0.27988276  0.78954924  0.18731349     1.05100
O1622       O  0.31439301  0.83076716  0.15296854    -0.94500
O1623       O  0.26881714  0.81154845  0.13076305    -0.90300
O1624       O  0.23958986  0.82804297  0.11957148    -0.83400
C1625       C  0.25958400  0.81896438  0.11953887     1.11700
O1626       O  0.16562638  0.74059317  0.18814893    -0.96500
Zr1627     Zr  0.17866940  0.77511733  0.16771225     1.88900
O1628       O  0.16358799  0.78923488  0.13040087    -0.73100
O1629       O  0.24829258  0.75704965  0.14748992    -0.52400
O1630       O  0.17901198  0.72472706  0.16204445    -0.97100
O1631       O  0.13070012  0.76236484  0.17780516    -0.54300
O1632       O  0.14483711  0.75311015  0.14784963    -0.73700
C1633       C  0.14377694  0.76269391  0.13540495     0.98700
O1634       O  0.20720741  0.84815147  0.11341399    -0.62500
O1635       O  0.20598089  0.91765908  0.18305598    -0.57300
O1636       O  0.19091147  0.87395453  0.13517917    -0.94000
O1637       O  0.17747855  0.88715854  0.15626958    -0.92400
O1638       O  0.27871305  0.95216954  0.16781857    -0.92700
O1639       O  0.28947377  0.93577545  0.14269294    -0.91500
C1640       C  0.18014763  0.88887082  0.14275035     1.17500
H1641       H  0.24945862  0.90117721  0.18946466     0.33500
H1642       H  0.27413743  0.86502838  0.13815518     0.44300
H1643       H  0.15629543  0.81378583  0.15455972     0.37900
H1644       H  0.22744568  0.77451649  0.17980549     0.34300
H1645       H  0.33754012  0.93631813  0.15495559     0.26100
H1646       H  0.26745892  0.75723956  0.14600290     0.32100
H1647       H  0.18241165  0.72499650  0.15168660     0.38000
H1648       H  0.25771696  0.94721306  0.16820629     0.32400
H1649       H  0.18673888  0.91771250  0.18328708     0.31300
H1650       H  0.13939557  0.86023142  0.18312113     0.33000
H1651       H  0.11981922  0.76664348  0.17022492     0.32000
H1652       H  0.28002010  0.92115807  0.13435566     0.36000
H1653       H  0.18639874  0.84302060  0.11160612     0.28700
H1654       H  0.27044918  0.83349054  0.21867916     0.32900
H1655       H  0.14800628  0.72029749  0.18511994     0.35800
H1656       H  0.21154379  0.91848818  0.19317954     0.28400
H1657       H  0.21881794  0.87182436  0.11289698     0.41300
H1658       H  0.32082932  0.84949845  0.14683285     0.31300
H1659       H  0.33411382  0.90453198  0.16128143     0.38900
H1660       H  0.13507892  0.77956322  0.18511486     0.30800
H1661       H  0.23969548  0.74342521  0.15579715     0.30800
H1662       H  0.23922612  0.80287792  0.21690660     0.31100
Zr1663     Zr  0.40707428  0.68056769  0.30497314     2.17500
O1664       O  0.41677686  0.71158601  0.28348350    -0.51300
O1665       O  0.41192117  0.63779887  0.29238038    -0.74500
O1666       O  0.45931065  0.71231810  0.29982279    -0.81200
O1667       O  0.32442050  0.64752021  0.29968760    -0.83000
O1668       O  0.48531931  0.72987779  0.32059010    -0.78600
O1669       O  0.36775881  0.66909838  0.28784181    -0.90200
O1670       O  0.40540431  0.59923310  0.30785669    -0.76200
O1671       O  0.43174289  0.66462336  0.32181234    -0.85700
O1672       O  0.37026395  0.63080303  0.31366174    -0.85400
O1673       O  0.42679407  0.72368329  0.32262677    -0.72100
O1674       O  0.37029204  0.69213182  0.31527802    -0.84300
Zr1675     Zr  0.37754484  0.66749013  0.35941515     2.26400
Zr1676     Zr  0.45053487  0.70675144  0.33973358     2.06300
Zr1677     Zr  0.33415845  0.64231435  0.32434651     2.10000
Zr1678     Zr  0.39469269  0.61527223  0.33075695     1.78800
O1679       O  0.29328615  0.65448254  0.32231532    -0.93100
O1680       O  0.43661049  0.60560412  0.33483611    -0.40900
O1681       O  0.35732790  0.62495498  0.34159109    -0.77500
O1682       O  0.41470518  0.65663190  0.34894582    -0.96200
O1683       O  0.41391534  0.71728648  0.35051160    -0.89500
O1684       O  0.35293150  0.68355466  0.34253930    -0.92400
C1685       C  0.41054503  0.61086661  0.29542284     1.01400
C1686       C  0.33956396  0.65762792  0.28836079     1.14300
C1687       C  0.48343767  0.72855030  0.30696456     1.05100
O1688       O  0.49056384  0.69358120  0.34273993    -0.94500
O1689       O  0.46086920  0.70893566  0.36499810    -0.90300
O1690       O  0.41764272  0.68668148  0.37704346    -0.83400
C1691       C  0.44607786  0.70044269  0.37653860     1.11700
O1692       O  0.40114487  0.77045472  0.31439039    -0.96500
Zr1693     Zr  0.38936899  0.73307163  0.33366871     1.88900
O1694       O  0.37113604  0.70872442  0.37248733    -0.73100
O1695       O  0.48185340  0.76288849  0.34690228    -0.52400
O1696       O  0.42833661  0.78676148  0.34036926    -0.97100
O1697       O  0.34622493  0.73959513  0.32801269    -0.54300
O1698       O  0.37679061  0.74684584  0.35685159    -0.73700
C1699       C  0.37184584  0.73532635  0.36936281     0.98700
O1700       O  0.37026809  0.63037675  0.37839885    -0.62500
O1701       O  0.30320857  0.58701055  0.31582605    -0.57300
O1702       O  0.32480717  0.63566169  0.36433867    -0.94000
O1703       O  0.29966446  0.61877094  0.34331193    -0.92400
O1704       O  0.35333727  0.56214748  0.32550999    -0.92700
O1705       O  0.38825611  0.57947876  0.35008934    -0.91500
C1706       C  0.30087640  0.61957666  0.35691142     1.17500
H1707       H  0.36110896  0.61457485  0.30605328     0.33500
H1708       H  0.42376980  0.64976672  0.35613539     0.44300
H1709       H  0.33704929  0.68594627  0.34684719     0.37900
H1710       H  0.44101363  0.74343542  0.31840111     0.34300
H1711       H  0.43192798  0.58568475  0.32922329     0.26100
H1712       H  0.50219749  0.76559981  0.34707879     0.32100
H1713       H  0.41780108  0.79881485  0.34333374     0.38000
H1714       H  0.33675903  0.56147026  0.33111669     0.32400
H1715       H  0.29567876  0.57440765  0.32449979     0.31300
H1716       H  0.27660565  0.63452009  0.31826550     0.33000
H1717       H  0.33339605  0.73209049  0.33642354     0.32000
H1718       H  0.37195819  0.57931307  0.35575990     0.36000
H1719       H  0.35138637  0.61074715  0.37617764     0.28700
H1720       H  0.42855253  0.70481558  0.27728944     0.32900
H1721       H  0.39406238  0.78575984  0.31746116     0.35800
H1722       H  0.28559874  0.58692709  0.31150065     0.28400
H1723       H  0.38546185  0.62342719  0.37674014     0.41300
H1724       H  0.48102144  0.67195306  0.34679777     0.31300
H1725       H  0.45322520  0.62279622  0.32976300     0.38900
H1726       H  0.33542733  0.72301114  0.32047979     0.30800
H1727       H  0.48143482  0.77525622  0.33868434     0.30800
H1728       H  0.43042321  0.73420644  0.28638673     0.31100
C1729       C  0.07360323  0.93009530  0.25649734    -0.21200
C1730       C  0.09893620  0.96019788  0.25563542    -0.09300
C1731       C  0.12603253  0.96428198  0.26116004     0.29600
C1732       C  0.12809687  0.93807930  0.26635864    -0.21200
C1733       C  0.10323571  0.90749971  0.26624206    -0.09300
C1734       C  0.07570375  0.90386145  0.26167105     0.29600
F1735       F  0.05139283  0.87443710  0.26102065    -0.19800
H1736       H  0.05248745  0.92633664  0.25235030     0.18000
H1737       H  0.14943311  0.94133677  0.26991757     0.18000
F1738       F  0.15073464  0.99337210  0.26119039    -0.19800
C1739       C  0.03845556  0.78071231  0.30764159    -0.21200
C1740       C  0.01710147  0.75251272  0.30064481    -0.09300
C1741       C  0.02135247  0.74656331  0.28631537     0.29600
C1742       C  0.04565957  0.76935949  0.27898523    -0.21200
C1743       C  0.06576589  0.79851336  0.28576099    -0.09300
C1744       C  0.06240576  0.80365013  0.30026369     0.29600
F1745       F  0.08171656  0.83139776  0.30716572    -0.19800
H1746       H  0.03573357  0.78594665  0.31865719     0.18000
H1747       H  0.04788743  0.76500931  0.26779984     0.18000
F1748       F  0.00162269  0.71922894  0.27928911    -0.19800
C1749       C  0.12738979  0.82546839  0.23500595    -0.21200
C1750       C  0.14250407  0.83808687  0.24794133    -0.09300
C1751       C  0.17337638  0.85073256  0.24860041     0.29600
C1752       C  0.18901537  0.85175059  0.23625844    -0.21200
C1753       C  0.17403738  0.84115080  0.22311775    -0.09300
C1754       C  0.14297428  0.82717779  0.22264684     0.29600
F1755       F  0.12774329  0.81591086  0.21016831    -0.19800
H1756       H  0.10362518  0.81613328  0.23433161     0.18000
H1757       H  0.21291793  0.86246866  0.23681562     0.18000
F1758       F  0.18843365  0.86364347  0.26098572    -0.19800
C1759       C  0.17679649  0.60887827  0.22259226    -0.21200
C1760       C  0.20076485  0.60250554  0.22129982    -0.09300
C1761       C  0.19542538  0.57053447  0.22148157     0.29600
C1762       C  0.16742710  0.54601194  0.22476366    -0.21200
C1763       C  0.14410972  0.55281578  0.22770675    -0.09300
C1764       C  0.14853001  0.58417709  0.22566770     0.29600
F1765       F  0.12634195  0.59162732  0.22778960    -0.19800
H1766       H  0.18040290  0.63334873  0.22237173     0.18000
H1767       H  0.16442722  0.52189022  0.22570548     0.18000
F1768       F  0.21785366  0.56339275  0.21947274    -0.19800
C1769       C  0.27926941  0.71179649  0.19474077    -0.21200
C1770       C  0.27957707  0.71290069  0.20962448    -0.09300
C1771       C  0.28663448  0.74203656  0.21693469     0.29600
C1772       C  0.28980633  0.76846862  0.20943592    -0.21200
C1773       C  0.28662140  0.76645050  0.19455603    -0.09300
C1774       C  0.28338350  0.73853342  0.18720112     0.29600
F1775       F  0.28154350  0.73586955  0.17279389    -0.19800
H1776       H  0.27461165  0.68972413  0.18896608     0.18000
H1777       H  0.29277526  0.78979385  0.21535385     0.18000
F1778       F  0.28797494  0.74418289  0.23135625    -0.19800
C1779       C  0.27849785  0.64747677  0.26275796    -0.21200
C1780       C  0.29339570  0.65500443  0.24979949    -0.09300
C1781       C  0.32352643  0.66338624  0.24949908     0.29600
C1782       C  0.33836935  0.66393210  0.26203603    -0.21200
C1783       C  0.32346741  0.65637765  0.27508526    -0.09300
C1784       C  0.29324172  0.64825564  0.27528341     0.29600
F1785       F  0.27785501  0.64166956  0.28756575    -0.19800
H1786       H  0.25537922  0.64154890  0.26322778     0.18000
H1787       H  0.36157043  0.67029068  0.26149925     0.18000
F1788       F  0.33844244  0.67051349  0.23707703    -0.19800
C1789       C  0.01100568  0.53849320  0.23781848    -0.21200
C1790       C  0.48712639  0.01721497  0.23818782    -0.09300
C1791       C  0.48635275  0.98713151  0.23845984     0.29600
C1792       C  0.01506720  0.98285310  0.24035907    -0.21200
C1793       C  0.04168540  0.01162172  0.23888772    -0.09300
C1794       C  0.03786841  0.53763310  0.23758098     0.29600
F1795       F  0.06308883  0.56516213  0.23508495    -0.19800
H1796       H  0.01094476  0.56093369  0.23592392     0.18000
H1797       H  0.01528898  0.96022440  0.24136250     0.18000
F1798       F  0.46035504  0.95973687  0.23983388    -0.19800
C1799       C  0.34484170  0.92452024  0.21625607    -0.21200
C1800       C  0.33421394  0.93666228  0.20554265    -0.09300
C1801       C  0.34742343  0.97020680  0.20403391     0.29600
C1802       C  0.37099740  0.99095379  0.21292827    -0.21200
C1803       C  0.38203623  0.97866610  0.22330937    -0.09300
C1804       C  0.36869019  0.94531676  0.22501398     0.29600
F1805       F  0.37865874  0.93295255  0.23520941    -0.19800
H1806       H  0.33506568  0.89886377  0.21766769     0.18000
H1807       H  0.38103794  0.01664406  0.21155197     0.18000
F1808       F  0.33735707  0.98302509  0.19409038    -0.19800
C1809       C  0.42102524  0.56662349  0.28721951    -0.21200
C1810       C  0.41486666  0.59166733  0.28386523    -0.09300
C1811       C  0.41242912  0.59756165  0.26944878     0.29600
C1812       C  0.41607186  0.57876076  0.25873237    -0.21200
C1813       C  0.42266389  0.55425717  0.26217201    -0.09300
C1814       C  0.42508915  0.54820615  0.27647561     0.29600
F1815       F  0.43082703  0.52408350  0.28002439    -0.19800
H1816       H  0.42290222  0.56136509  0.29818215     0.18000
H1817       H  0.41392921  0.58342529  0.24770756     0.18000
F1818       F  0.40603598  0.62105836  0.26565526    -0.19800
C1819       C  0.21457491  0.94829997  0.39823022    -0.21200
C1820       C  0.18594495  0.94319217  0.39498927    -0.09300
C1821       C  0.16189365  0.91220289  0.39597019     0.29600
C1822       C  0.16608582  0.88771808  0.40162474    -0.21200
C1823       C  0.19432477  0.89370733  0.40631473    -0.09300
C1824       C  0.21883830  0.92377435  0.40382642     0.29600
F1825       F  0.24654600  0.93053124  0.40796541    -0.19800
H1826       H  0.23343234  0.97204065  0.39754544     0.18000
H1827       H  0.14692242  0.86447456  0.40299944     0.18000
F1828       F  0.13413660  0.90617013  0.39225146    -0.19800
C1829       C  0.22131822  0.55754253  0.36387926    -0.21200
C1830       C  0.22295431  0.55307663  0.37839749    -0.09300
C1831       C  0.24900698  0.57279268  0.38611125     0.29600
C1832       C  0.27375412  0.59578161  0.37920120    -0.21200
C1833       C  0.27300012  0.59923889  0.36443853    -0.09300
C1834       C  0.24602399  0.58052319  0.35689530     0.29600
F1835       F  0.24371915  0.58312462  0.34267359    -0.19800
H1836       H  0.20130498  0.54221149  0.35783823     0.18000
H1837       H  0.29396547  0.60968311  0.38532868     0.18000
F1838       F  0.25108243  0.56826966  0.40015694    -0.19800
C1839       C  0.15884262  0.52700802  0.42487201    -0.21200
C1840       C  0.14246543  0.50665067  0.41345963    -0.09300
C1841       C  0.11164026  0.48756173  0.41465290     0.29600
C1842       C  0.09762882  0.48853101  0.42731941    -0.21200
C1843       C  0.11449552  0.50756258  0.43899576    -0.09300
C1844       C  0.14509840  0.52719399  0.43759392     0.29600
F1845       F  0.16180743  0.54615827  0.44866476    -0.19800
H1846       H  0.18266304  0.54141236  0.42420178     0.18000
H1847       H  0.07731897  0.96616065  0.43180810     0.18000
F1848       F  0.09541926  0.46732386  0.40378987    -0.19800
C1849       C  0.11296300  0.74736204  0.44230316    -0.21200
C1850       C  0.08979010  0.75512230  0.44359227    -0.09300
C1851       C  0.09642325  0.78751359  0.44342631     0.29600
C1852       C  0.12494017  0.81113318  0.44032141    -0.21200
C1853       C  0.14746371  0.80299945  0.43749833    -0.09300
C1854       C  0.14173466  0.77117415  0.43934011     0.29600
F1855       F  0.16305380  0.76248730  0.43692564    -0.19800
H1856       H  0.10834623  0.72252932  0.44241673     0.18000
H1857       H  0.12900802  0.83564926  0.43934096     0.18000
F1858       F  0.07482692  0.79601113  0.44530294    -0.19800
C1859       C  0.46640120  0.70332639  0.41575866    -0.21200
C1860       C  0.49645049  0.71156059  0.41492301    -0.09300
C1861       C  0.50997753  0.71749879  0.40156591     0.29600
C1862       C  0.49363734  0.71487730  0.38930843    -0.21200
C1863       C  0.46330503  0.70589054  0.38998660    -0.09300
C1864       C  0.44990517  0.70055732  0.40344439     0.29600
F1865       F  0.42085345  0.69226763  0.40475767    -0.19800
H1866       H  0.45564080  0.69873964  0.42597185     0.18000
H1867       H  0.50469867  0.71887987  0.37918780     0.18000
F1868       F  0.04042445  0.72415351  0.40137507    -0.19800
C1869       C  0.01159680  0.61988540  0.47693035    -0.21200
C1870       C  0.00929619  0.59295846  0.46913044    -0.09300
C1871       C  0.00414210  0.59102109  0.45433363     0.29600
C1872       C  0.50967290  0.62678958  0.44644025    -0.21200
C1873       C  0.01071628  0.64545546  0.45510083    -0.09300
C1874       C  0.01255247  0.64601194  0.46999084     0.29600
F1875       F  0.01727862  0.67270302  0.47774505    -0.19800
H1876       H  0.01516353  0.62199486  0.48833678     0.18000
H1877       H  0.50942478  0.62695999  0.43493145     0.18000
F1878       F  0.50704683  0.57548303  0.44488558    -0.19800
C1879       C  0.30741276  0.87254622  0.42384884    -0.21200
C1880       C  0.30697615  0.84360998  0.42710378    -0.09300
C1881       C  0.28020436  0.81720438  0.43086009     0.29600
C1882       C  0.25399582  0.81933394  0.43078030    -0.21200
C1883       C  0.25397252  0.84772555  0.42678873    -0.09300
C1884       C  0.28115842  0.87464772  0.42359017     0.29600
F1885       F  0.28246223  0.90292039  0.42010524    -0.19800
H1886       H  0.32798451  0.89319409  0.42102610     0.18000
H1887       H  0.23354083  0.79833165  0.43340074     0.18000
F1888       F  0.27941721  0.78925300  0.43446913    -0.19800
C1889       C  0.36164721  0.77993782  0.37746930    -0.21200
C1890       C  0.36724890  0.75455156  0.38092265    -0.09300
C1891       C  0.36978530  0.74908110  0.39541026     0.29600
C1892       C  0.36765861  0.76920021  0.40602771    -0.21200
C1893       C  0.36244552  0.79464314  0.40245379    -0.09300
C1894       C  0.35913062  0.79967791  0.38810150     0.29600
F1895       F  0.35448225  0.82442547  0.38435306    -0.19800
H1896       H  0.35949463  0.78481032  0.36648068     0.18000
H1897       H  0.37015655  0.76499251  0.41707686     0.18000
F1898       F  0.37516218  0.72496414  0.39937040    -0.19800
C1899       C  0.41014151  0.87439924  0.45598334    -0.21200
C1900       C  0.41146110  0.87790181  0.44124170    -0.09300
C1901       C  0.43713324  0.90211570  0.43522598     0.29600
C1902       C  0.46081305  0.92330703  0.44397041    -0.21200
C1903       C  0.45932818  0.92033521  0.45880432    -0.09300
C1904       C  0.43391365  0.89514354  0.46472169     0.29600
F1905       F  0.43146615  0.89121006  0.47898650    -0.19800
H1906       H  0.39045152  0.85575449  0.46073455     0.18000
H1907       H  0.48022661  0.94218876  0.43915030     0.18000
F1908       F  0.43876515  0.90606149  0.42096781    -0.19800
C1909       C  0.46893860  0.62947293  0.59774924    -0.21200
C1910       C  0.44380917  0.59914860  0.59688563    -0.09300
C1911       C  0.41671491  0.59664758  0.59226845     0.29600
C1912       C  0.41547308  0.62392578  0.58770813    -0.21200
C1913       C  0.44121564  0.65392255  0.58760312    -0.09300
C1914       C  0.46773471  0.65662900  0.59324124     0.29600
F1915       F  0.49279392  0.68538146  0.59408279    -0.19800
H1916       H  0.98770392  0.63204069  0.60229027     0.18000
H1917       H  0.39475656  0.62119455  0.58349278     0.18000
F1918       F  0.39205113  0.56757975  0.59111056    -0.19800
C1919       C  0.38996943  0.97007987  0.61189914    -0.21200
C1920       C  0.40966273  0.99949667  0.61855297    -0.12300
C1921       C  0.40608199  0.00513917  0.63296226     0.29600
C1922       C  0.38244216  0.98186860  0.64044137    -0.21200
C1923       C  0.36166705  0.95308217  0.63355044    -0.09300
C1924       C  0.36600320  0.94713935  0.61924830     0.29600
F1925       F  0.34670451  0.91956643  0.61223869    -0.19800
H1926       H  0.39126342  0.45789493  0.59923208     0.18000
H1927       H  0.37953298  0.98712016  0.65142822     0.18000
F1928       F  0.42497501  0.03334535  0.63967892    -0.19800
C1929       C  0.01885480  0.55768239  0.57977245    -0.21200
C1930       C  0.48809082  0.53280071  0.57990587    -0.09300
C1931       C  0.47347911  0.51299557  0.56801550     0.29600
C1932       C  0.48940969  0.51353309  0.55595133    -0.21200
C1933       C  0.02188352  0.53324136  0.55734323    -0.09300
C1934       C  0.03511839  0.55750242  0.56790738     0.29600
F1935       F  0.06275527  0.58226941  0.56617250    -0.19800
H1936       H  0.02863519  0.57757520  0.58745953     0.18000
H1937       H  0.47763043  0.49916427  0.54662258     0.18000
F1938       F  0.44349168  0.49555894  0.56758605    -0.19800
C1939       C  0.99819803  0.78250296  0.55922556    -0.21200
C1940       C  0.99236169  0.75040108  0.55987315    -0.09300
C1941       C  0.01471827  0.74255566  0.55609121     0.29600
C1942       C  0.04310422  0.76675056  0.55311979    -0.21200
C1943       C  0.04968236  0.79910571  0.55376548    -0.09300
C1944       C  0.02671377  0.80678852  0.55624167     0.29600
F1945       F  0.03240837  0.83789161  0.55708648    -0.19800
H1946       H  0.98127596  0.78908866  0.56199665     0.18000
H1947       H  0.06044922  0.76038123  0.55106377     0.18000
F1948       F  0.51314250  0.71505319  0.55923192    -0.19800
C1949       C  0.12987567  0.84402604  0.59370283    -0.21200
C1950       C  0.14423107  0.84917665  0.58062575    -0.09300
C1951       C  0.17379675  0.85532345  0.58028171     0.29600
C1952       C  0.18876323  0.85660315  0.59293808    -0.21200
C1953       C  0.17444184  0.85174022  0.60611856    -0.09300
C1954       C  0.14459739  0.84518662  0.60629070     0.29600
F1955       F  0.12957395  0.84063418  0.61861874    -0.19800
H1956       H  0.10717811  0.83963509  0.59420581     0.18000
H1957       H  0.21159005  0.86150682  0.59241145     0.18000
F1958       F  0.18799192  0.85959877  0.56772153    -0.19800
C1959       C  0.12969056  0.93253984  0.51833043    -0.21200
C1960       C  0.13472148  0.96058656  0.52609045    -0.09300
C1961       C  0.14091778  0.96266577  0.54076583     0.29600
C1962       C  0.13869365  0.93590475  0.54772006    -0.21200
C1963       C  0.13011812  0.90671388  0.54017747    -0.09300
C1964       C  0.12708446  0.90568170  0.52531802     0.29600
F1965       F  0.11976077  0.87808343  0.51768289    -0.19800
H1966       H  0.12496972  0.93023892  0.50701522     0.18000
H1967       H  0.14142506  0.93728121  0.55917431     0.18000
F1968       F  0.14703063  0.98974719  0.54855149    -0.19800
C1969       C  0.36061441  0.74030164  0.56852026    -0.21200
C1970       C  0.33354462  0.71210913  0.56987024    -0.09300
C1971       C  0.33368559  0.68270778  0.57125495     0.29600
C1972       C  0.36046160  0.68178745  0.57178431    -0.21200
C1973       C  0.38768143  0.71003212  0.57073805    -0.09300
C1974       C  0.38746392  0.73934932  0.56882852     0.29600
F1975       F  0.41311661  0.76728447  0.56785050    -0.19800
H1976       H  0.36094095  0.76318742  0.56741212     0.18000
H1977       H  0.35984785  0.65883490  0.57315560     0.18000
F1978       F  0.30799366  0.65503086  0.57275733    -0.19800
C1979       C  0.28108769  0.75444545  0.60798194    -0.21200
C1980       C  0.27331560  0.75622272  0.59387499    -0.09300
C1981       C  0.26377882  0.77867033  0.59060362     0.29600
C1982       C  0.26191513  0.79879949  0.60132893    -0.21200
C1983       C  0.26883516  0.79635293  0.61555159    -0.09300
C1984       C  0.27864383  0.77399260  0.61874031     0.29600
F1985       F  0.28590671  0.77093418  0.63226631    -0.19800
H1986       H  0.28857886  0.73738566  0.61071795     0.18000
H1987       H  0.25418498  0.81563552  0.59856475     0.18000
F1988       F  0.25651646  0.78130724  0.57702566    -0.19800
C1989       C  0.20196371  0.64895488  0.56067953    -0.21200
C1990       C  0.22812150  0.67202751  0.55455146    -0.09300
C1991       C  0.22997761  0.67325440  0.53966677     0.29600
C1992       C  0.20622669  0.65145272  0.53108351    -0.21200
C1993       C  0.18013405  0.62782412  0.53715302    -0.09300
C1994       C  0.17823345  0.62694127  0.55211643     0.29600
F1995       F  0.15328864  0.60520798  0.55851589    -0.19800
H1996       H  0.20011086  0.64766115  0.57213714     0.18000
H1997       H  0.20837953  0.65295122  0.51964369     0.18000
F1998       F  0.25466327  0.69592662  0.53343982    -0.19800
C1999       C  0.00794653  0.60112596  0.74338996    -0.21200
C2000       C  0.03556072  0.60162029  0.74355779    -0.09300
C2001       C  0.06053455  0.62901384  0.73872690     0.29600
C2002       C  0.05803792  0.65569645  0.73455912    -0.21200
C2003       C  0.03071005  0.65574753  0.73503582    -0.09300
C2004       C  0.00546008  0.62778838  0.73916838     0.29600
F2005       F  0.97840181  0.62629572  0.73932010    -0.19800
H2006       H  0.98816608  0.58022932  0.74676816     0.18000
H2007       H  0.07794302  0.67698223  0.73161765     0.18000
F2008       F  0.08769996  0.63082297  0.73859201    -0.19800
C2009       C  0.07411163  0.75392860  0.69814474    -0.21200
C2010       C  0.07297385  0.76190524  0.71251024    -0.09300
C2011       C  0.09562159  0.79080567  0.71840916     0.29600
C2012       C  0.11991070  0.81025412  0.71026026    -0.21200
C2013       C  0.12190283  0.80147843  0.69608197    -0.09300
C2014       C  0.09824635  0.77364676  0.68991066     0.29600
F2015       F  0.09920336  0.76434217  0.67623024    -0.19800
H2016       H  0.05674726  0.73178528  0.69345089     0.18000
H2017       H  0.13765810  0.83175925  0.71520058     0.18000
F2018       F  0.09534567  0.79918351  0.73230785    -0.19800
C2019       C  0.02081686  0.75097341  0.76545494    -0.21200
C2020       C  0.00433854  0.73772944  0.75290485    -0.09300
C2021       C  0.47449008  0.72090175  0.75402595     0.29600
C2022       C  0.45825860  0.72136105  0.76584737    -0.21200
C2023       C  0.47252080  0.73509853  0.77895963    -0.09300
C2024       C  0.50377913  0.75135065  0.77952531     0.29600
F2025       F  0.51871930  0.76635050  0.79170276    -0.19800
H2026       H  0.04416331  0.75780257  0.76583454     0.18000
H2027       H  0.43435555  0.70913141  0.76490818     0.18000
F2028       F  0.45997661  0.70540071  0.74183820    -0.19800
C2029       C  0.14484253  0.56564631  0.74831306    -0.21200
C2030       C  0.14287904  0.53528685  0.74985721    -0.09300
C2031       C  0.11521804  0.50843872  0.75175875     0.29600
C2032       C  0.08996567  0.51221099  0.75255931    -0.21200
C2033       C  0.09188933  0.54273166  0.75132799    -0.09300
C2034       C  0.11958508  0.56943564  0.74898749     0.29600
F2035       F  0.12255441  0.59936193  0.74795483    -0.19800
H2036       H  0.16615114  0.58659220  0.74687395     0.18000
H2037       H  0.06890162  0.49118071  0.75429556     0.18000
F2038       F  0.11280524  0.47891439  0.75351391    -0.19800
C2039       C  0.26820588  0.59804837  0.76623907    -0.21200
C2040       C  0.24167241  0.57377363  0.77137954    -0.09300
C2041       C  0.23641287  0.57184365  0.78601376     0.29600
C2042       C  0.25805078  0.59346088  0.79546747    -0.21200
C2043       C  0.28515502  0.61763822  0.79045615    -0.09300
C2044       C  0.28972337  0.62008283  0.77563616     0.29600
F2045       F  0.31497825  0.64339054  0.77012933    -0.19800
H2046       H  0.27208379  0.60011824  0.75490335     0.18000
H2047       H  0.25371451  0.59079220  0.80674562     0.18000
F2048       F  0.21057110  0.54860705  0.79114091    -0.19800
C2049       C  0.19235617  0.98551826  0.72124131    -0.21200
C2050       C  0.20178333  0.98618040  0.73530887    -0.09300
C2051       C  0.21647477  0.96840364  0.73853111     0.29600
C2052       C  0.22202667  0.95094547  0.72778707    -0.21200
C2053       C  0.21317050  0.95102127  0.71367659    -0.09300
C2054       C  0.19786965  0.96810231  0.71054580     0.29600
F2055       F  0.18768217  0.96745921  0.69717422    -0.19800
H2056       H  0.19015885  0.50215645  0.71445929     0.18000
H2057       H  0.23363609  0.93773263  0.73045895     0.18000
F2058       F  0.22502482  0.96744385  0.75207518    -0.19800
C2059       C  0.45408736  0.94228484  0.77537389    -0.21200
C2060       C  0.42990789  0.94836203  0.77653341    -0.09300
C2061       C  0.43484562  0.98013488  0.77586915     0.29600
C2062       C  0.46673212  0.50120464  0.77014240    -0.21200
C2063       C  0.49180081  0.49721196  0.76772269    -0.09300
C2064       C  0.48206880  0.96684068  0.77197411     0.29600
F2065       F  0.50424182  0.95936938  0.76980037    -0.19800
H2066       H  0.45084835  0.91798674  0.77585301     0.18000
H2067       H  0.46759776  0.52428042  0.76878483     0.18000
F2068       F  0.41226341  0.98712126  0.77762720    -0.19800
C2069       C  0.35754849  0.83363972  0.80089026    -0.21200
C2070       C  0.35944633  0.83491759  0.78606976    -0.09300
C2071       C  0.36085619  0.80991499  0.77829779     0.29600
C2072       C  0.36266967  0.78528807  0.78540001    -0.21200
C2073       C  0.36287586  0.78510129  0.80035566    -0.09300
C2074       C  0.35885577  0.80887789  0.80800532     0.29600
F2075       F  0.35738225  0.80918706  0.82240949    -0.19800
H2076       H  0.35631229  0.85270008  0.80701146     0.18000
H2077       H  0.36529900  0.76722508  0.77918286     0.18000
F2078       F  0.36277197  0.81063557  0.76391607    -0.19800
C2079       C  0.33843294  0.90617098  0.72302805    -0.21200
C2080       C  0.30773250  0.89506828  0.72314171    -0.09300
C2081       C  0.29243887  0.88356179  0.73597743     0.29600
C2082       C  0.30763275  0.88266456  0.74818531    -0.21200
C2083       C  0.33821693  0.89352320  0.74788118    -0.09300
C2084       C  0.35348141  0.90536517  0.73517354     0.29600
F2085       F  0.38297224  0.91537293  0.73435624    -0.19800
H2086       H  0.35095648  0.91499136  0.71340880     0.18000
H2087       H  0.29557711  0.87375770  0.75792138     0.18000
F2088       F  0.26285397  0.87288946  0.73678516    -0.19800
C2089       C  0.03840394  0.77009431  0.86775504    -0.21200
C2090       C  0.50367622  0.74570846  0.87325039    -0.09300
C2091       C  0.00452086  0.75032464  0.88745133     0.29600
C2092       C  0.02747082  0.76976492  0.89684802    -0.21200
C2093       C  0.05592771  0.78964683  0.89184529    -0.09300
C2094       C  0.06147297  0.78919541  0.87723831     0.29600
F2095       F  0.08890656  0.80801193  0.87208865    -0.19800
H2096       H  0.53592012  0.77009044  0.85692356     0.18000
H2097       H  0.02297465  0.76942489  0.90811137     0.18000
F2098       F  0.97724179  0.73217670  0.89286566    -0.19800
C2099       C  0.07951692  0.88994137  0.92808594    -0.21200
C2100       C  0.09085919  0.86979600  0.93250847    -0.09300
C2101       C  0.09644014  0.86882353  0.94706687     0.29600
C2102       C  0.09107919  0.88793087  0.95693741    -0.21200
C2103       C  0.07976968  0.90811672  0.95253659    -0.09300
C2104       C  0.07404930  0.90901520  0.93798151     0.29600
F2105       F  0.06228858  0.92748690  0.93335795    -0.19800
H2106       H  0.07494018  0.89095217  0.91693256     0.18000
H2107       H  0.09559076  0.88673619  0.96808506     0.18000
F2108       F  0.10601085  0.84849774  0.95183169    -0.19800
C2109       C  0.20848060  0.84845523  0.91431441    -0.21200
C2110       C  0.20652461  0.81779128  0.91422516    -0.09300
C2111       C  0.17843091  0.79045375  0.91411738     0.29600
C2112       C  0.15295025  0.79393588  0.91388041    -0.21200
C2113       C  0.15498712  0.82458533  0.91382348    -0.09300
C2114       C  0.18299644  0.85190836  0.91423108     0.29600
F2115       F  0.18577194  0.88189415  0.91410734    -0.19800
H2116       H  0.22982861  0.86990245  0.91448808     0.18000
H2117       H  0.13150714  0.77260219  0.91369007     0.18000
F2118       F  0.17546168  0.76037576  0.91379586    -0.19800
C2119       C  0.28869318  0.75947665  0.92706225    -0.21200
C2120       C  0.26108066  0.75840010  0.92493441    -0.09300
C2121       C  0.23504521  0.72957269  0.92734272     0.29600
C2122       C  0.23676847  0.70220889  0.93107261    -0.21200
C2123       C  0.26430792  0.70299687  0.93241149    -0.09300
C2124       C  0.29033150  0.73202094  0.93071812     0.29600
F2125       F  0.31726947  0.73355593  0.93222837    -0.19800
H2126       H  0.30915893  0.78139599  0.92552841     0.18000
H2127       H  0.21645216  0.67985833  0.93214969     0.18000
F2128       F  0.20787875  0.72713014  0.92536675    -0.19800
C2129       C  0.32891083  0.62469445  0.89774417    -0.21200
C2130       C  0.31523121  0.62291134  0.88451733    -0.09300
C2131       C  0.28570522  0.61737433  0.88426981     0.29600
C2132       C  0.27170053  0.61739723  0.89693873    -0.21200
C2133       C  0.28662755  0.62244552  0.90995285    -0.09300
C2134       C  0.31466607  0.62447944  0.91040822     0.29600
F2135       F  0.32916415  0.62904425  0.92301710    -0.19800
H2136       H  0.35144316  0.62858628  0.89832105     0.18000
H2137       H  0.24998496  0.61589217  0.89655595     0.18000
F2138       F  0.27124498  0.61502308  0.87186293    -0.19800
C2139       C  0.19709455  0.56833201  0.94509518    -0.21200
C2140       C  0.22122664  0.59455426  0.95173974    -0.09300
C2141       C  0.22136977  0.59965321  0.96649823     0.29600
C2142       C  0.19705383  0.57929491  0.97442848    -0.21200
C2143       C  0.17195297  0.55428802  0.96765225    -0.09300
C2144       C  0.17246041  0.54848255  0.95292198     0.29600
F2145       F  0.14867782  0.52467707  0.94593435    -0.19800
H2146       H  0.19651012  0.56448314  0.93366803     0.18000
H2147       H  0.19713130  0.58445793  0.98572131     0.18000
F2148       F  0.24433639  0.62527175  0.97308793    -0.19800
C2149       C  0.34222502  0.91939956  0.89740982    -0.21200
C2150       C  0.36635373  0.91393738  0.89467891    -0.09300
C2151       C  0.36280429  0.88277132  0.89570417     0.29600
C2152       C  0.33593267  0.85788460  0.90006208    -0.21200
C2153       C  0.31207885  0.86355949  0.90335729    -0.09300
C2154       C  0.31526267  0.89450388  0.90167220     0.29600
F2155       F  0.29299363  0.90128055  0.90483423    -0.19800
H2156       H  0.34470711  0.94340809  0.89698814     0.18000
H2157       H  0.33398311  0.83421258  0.90105163     0.18000
F2158       F  0.38555083  0.87659279  0.89284075    -0.19800
C2159       C  0.42001558  0.53589852  0.86647926    -0.21200
C2160       C  0.42259112  0.53865341  0.88133066    -0.09300
C2161       C  0.42416907  0.56603877  0.88834475     0.29600
C2162       C  0.42225033  0.58976904  0.88057548    -0.21200
C2163       C  0.41862670  0.58658989  0.86567659    -0.09300
C2164       C  0.41817373  0.55954689  0.85868324     0.29600
F2165       F  0.41502949  0.55521342  0.84434382    -0.19800
H2166       H  0.41876397  0.51491488  0.86091782     0.18000
H2167       H  0.42271700  0.61017500  0.88630996     0.18000
F2168       F  0.42577017  0.56892281  0.90275263    -0.19800
C2169       C  0.48781927  0.97629757  0.91600849    -0.21200
C2170       C  0.46251617  0.98025413  0.91674556    -0.09300
C2171       C  0.45156130  0.98335638  0.93001508     0.29600
C2172       C  0.46545378  0.98200839  0.94243960    -0.21200
C2173       C  0.49048995  0.97741555  0.94186903    -0.09300
C2174       C  0.50189251  0.97496777  0.92850817     0.29600
F2175       F  0.52564261  0.96974243  0.92750394    -0.19800
H2176       H  0.49587833  0.97292680  0.90579920     0.18000
H2177       H  0.45793132  0.49821798  0.95593997     0.18000
F2178       F  0.42502675  0.50054903  0.93578245    -0.19800
C2179       C  0.28379552  0.62299606  0.10526621    -0.21200
C2180       C  0.30599610  0.61382366  0.10356137    -0.09300
C2181       C  0.29979223  0.58266999  0.10723998     0.29600
C2182       C  0.27068959  0.55995785  0.11045585    -0.21200
C2183       C  0.24777994  0.56832566  0.11023893    -0.09300
C2184       C  0.25502009  0.60056438  0.10859554     0.29600
F2185       F  0.23383202  0.60994082  0.10931855    -0.19800
H2186       H  0.28823170  0.64723620  0.10310963     0.18000
H2187       H  0.26569587  0.53530960  0.11200240     0.18000
F2188       F  0.32100885  0.57335772  0.10651155    -0.19800
C2189       C  0.17083499  0.96178901  0.13571577    -0.21200
C2190       C  0.17079239  0.96131619  0.12083968    -0.09300
C2191       C  0.16898651  0.93445579  0.11327506     0.29600
C2192       C  0.16980053  0.90962375  0.12055538    -0.21200
C2193       C  0.17238659  0.91121659  0.13546775    -0.09300
C2194       C  0.17146315  0.93690799  0.14303850     0.29600
F2195       F  0.17384925  0.93964681  0.15743288    -0.19800
H2196       H  0.17235962  0.98250603  0.14164156     0.18000
H2197       H  0.17019171  0.89007996  0.11445514     0.18000
F2198       F  0.16943702  0.93373966  0.09884671    -0.19800
C2199       C  0.16860838  0.02567289  0.06802391    -0.21200
C2200       C  0.15402372  0.01808414  0.08105258    -0.09300
C2201       C  0.12315444  0.51107269  0.08399605     0.29600
C2202       C  0.10815946  0.50981870  0.07132923    -0.21200
C2203       C  0.12303454  0.01537152  0.05591146    -0.09300
C2204       C  0.15342939  0.02424402  0.05558200     0.29600
F2205       F  0.16854597  0.03067617  0.04321399    -0.19800
H2206       H  0.19181329  0.03202837  0.06741358     0.18000
H2207       H  0.08605159  0.50716040  0.07193866     0.18000
F2208       F  0.10975350  0.50921375  0.09662980    -0.19800
C2209       C  0.32201530  0.72105269  0.05982120    -0.21200
C2210       C  0.34654553  0.75181350  0.05947475    -0.09300
C2211       C  0.37463615  0.75612874  0.06349111     0.29600
C2212       C  0.37749426  0.73046976  0.06877938    -0.21200
C2213       C  0.35237003  0.70054378  0.07049506    -0.09300
C2214       C  0.32472647  0.69566149  0.06543338     0.29600
F2215       F  0.29997514  0.66692964  0.06667248    -0.19800
H2216       H  0.30024929  0.71731955  0.05675501     0.18000
H2217       H  0.39897927  0.73483317  0.07265974     0.18000
F2218       F  0.39869957  0.78575613  0.06382138    -0.19800
C2219       C  0.29848228  0.81143604  0.10701235    -0.21200
C2220       C  0.27457158  0.81806495  0.10610909    -0.09300
C2221       C  0.26668368  0.82439588  0.09263919     0.29600
C2222       C  0.28219018  0.82335331  0.08046388    -0.21200
C2223       C  0.30549923  0.81591774  0.08160665    -0.09300
C2224       C  0.31372147  0.81045396  0.09502278     0.29600
F2225       F  0.33661794  0.80394200  0.09654628    -0.19800
H2226       H  0.30571840  0.80692408  0.11709916     0.18000
H2227       H  0.27560944  0.82757520  0.07014500     0.18000
F2228       F  0.24395878  0.83113172  0.09115341    -0.19800
C2229       C  0.42943659  0.91075465  0.04533738    -0.21200
C2230       C  0.43099878  0.91080287  0.03040754    -0.09300
C2231       C  0.40651799  0.88748501  0.02240454     0.29600
C2232       C  0.38214141  0.86370281  0.02925557    -0.21200
C2233       C  0.38141063  0.86305595  0.04410287    -0.09300
C2234       C  0.40486961  0.88710337  0.05213481     0.29600
F2235       F  0.40495377  0.88628118  0.06654288    -0.19800
H2236       H  0.44777390  0.92824260  0.05180291     0.18000
H2237       H  0.36427211  0.84499543  0.02296836     0.18000
F2238       F  0.40668575  0.88628952  0.00797919    -0.19800
C2239       C  0.41388322  0.62835329  0.09457352    -0.21200
C2240       C  0.41204498  0.65582025  0.09070825    -0.09300
C2241       C  0.43822115  0.68369642  0.08720335     0.29600
C2242       C  0.46531843  0.68374379  0.08732837    -0.21200
C2243       C  0.46701253  0.65612331  0.09078630    -0.09300
C2244       C  0.44115610  0.62833826  0.09444931     0.29600
F2245       F  0.44233068  0.60131408  0.09789385    -0.19800
H2246       H  0.39412508  0.60663233  0.09726660     0.18000
H2247       H  0.48505249  0.70528917  0.08441239     0.18000
F2248       F  0.43782764  0.71108615  0.08363111    -0.19800
C2249       C  0.06658876  0.69991294  0.12354826    -0.21200
C2250       C  0.06854710  0.70247324  0.10874564    -0.09300
C2251       C  0.09513822  0.72515268  0.10275176     0.29600
C2252       C  0.11940950  0.74486588  0.11147839    -0.21200
C2253       C  0.11776503  0.74193113  0.12630707    -0.09300
C2254       C  0.09097687  0.71919478  0.13228753     0.29600
F2255       F  0.08811409  0.71575575  0.14656994    -0.19800
H2256       H  0.04625701  0.68248768  0.12832630     0.18000
H2257       H  0.13965360  0.76216242  0.10659647     0.18000
F2258       F  0.09751257  0.72849211  0.08846209    -0.19800
C2259       C  0.01238724  0.56878166  0.05738249    -0.21200
C2260       C  0.03554684  0.58330784  0.04769947    -0.09300
C2261       C  0.05416909  0.61671992  0.04878517     0.29600
C2262       C  0.04980096  0.63509495  0.05946548    -0.21200
C2263       C  0.02643746  0.62064042  0.06904635    -0.09300
C2264       C  0.00759327  0.58729824  0.06785798     0.29600
F2265       F  0.49357911  0.56961214  0.07811962    -0.19800
H2266       H  0.99772458  0.54309574  0.05671139     0.18000
H2267       H  0.06454343  0.66075968  0.06018258     0.18000
F2268       F  0.07702412  0.63150366  0.03973824    -0.19800
C2269       C  0.54545354  0.17736836  0.09704327     0.03200
C2270       C  0.54905525  0.15582047  0.08781268    -0.12900
C2271       C  0.52502164  0.13265570  0.07973783     0.00700
C2272       C  0.49721349  0.13149033  0.08085042    -0.11500
C2273       C  0.49352012  0.15349272  0.08984049     0.03200
C2274       C  0.51770796  0.17611968  0.09803904    -0.10900
H2275       H  0.57049507  0.15669225  0.08712738     0.08800
H2276       H  0.97531780  0.11938798  0.07300270     0.06300
H2277       H  0.51501170  0.19297052  0.10513236     0.06200
C2278       C  0.86162132  0.34871101  0.05243240     0.03200
C2279       C  0.84229676  0.35151371  0.06216687    -0.12900
C2280       C  0.82321981  0.32491440  0.06992230     0.00700
C2281       C  0.82371531  0.29576219  0.06801385    -0.11500
C2282       C  0.84387017  0.29321315  0.05872290     0.03200
C2283       C  0.86226286  0.31951923  0.05066564    -0.10900
H2284       H  0.84299159  0.37454619  0.06413385     0.08800
H2285       H  0.81035521  0.27596999  0.07478789     0.06300
H2286       H  0.87840572  0.31793976  0.04371720     0.06200
C2287       C  0.66773642  0.51529563  0.09711360     0.03200
C2288       C  0.69378451  0.04943991  0.09931115    -0.12900
C2289       C  0.71421338  0.05044168  0.10944580     0.00700
C2290       C  0.70602437  0.02418227  0.11823998    -0.11500
C2291       C  0.67582502  0.48934934  0.11737792     0.03200
C2292       C  0.65807786  0.48883999  0.10592409    -0.10900
H2293       H  0.70045566  0.06854542  0.09180521     0.08800
H2294       H  0.72207269  0.02409492  0.12568703     0.06300
H2295       H  0.63773052  0.46708642  0.10334209     0.06200
C2296       C  0.88072855  0.16186513  0.08740511     0.80300
N2297       N  0.88000531  0.18486199  0.07930529    -0.78000
C2298       C  0.85457984  0.18659273  0.07766812     0.82700
N2299       N  0.83004500  0.16575013  0.08451923    -0.78000
C2300       C  0.83029488  0.14284437  0.09274662     0.82800
N2301       N  0.85567543  0.14064942  0.09404068    -0.79700
C2302       C  0.92271091  0.99750591  0.88565501     0.03200
C2303       C  0.89220687  0.47655826  0.88811558    -0.12900
C2304       C  0.88949081  0.45159010  0.89674356     0.00700
C2305       C  0.91288057  0.45662831  0.90585873    -0.11500
C2306       C  0.93811842  0.48661177  0.90702966     0.03200
C2307       C  0.94411577  0.99988883  0.89566795    -0.10900
H2308       H  0.87387159  0.47303383  0.88127249     0.08800
H2309       H  0.91038009  0.43798737  0.91303678     0.06300
H2310       H  0.96370836  0.02270040  0.89781019     0.06200
C2311       C  0.74200406  0.11527002  0.94222842     0.03200
C2312       C  0.75733644  0.10688501  0.93196116    -0.12900
C2313       C  0.77623443  0.12982611  0.92249612     0.00700
C2314       C  0.77976747  0.16099175  0.92318662    -0.11500
C2315       C  0.76435330  0.16964085  0.93309446     0.03200
C2316       C  0.74564024  0.14672150  0.94265541    -0.10900
H2317       H  0.75449315  0.08269085  0.93126068     0.08800
H2318       H  0.79329138  0.17798169  0.91534193     0.06300
H2319       H  0.73284497  0.15301774  0.95000789     0.06200
C2320       C  0.73225263  0.31343106  0.91792578     0.80300
N2321       N  0.73424848  0.28715887  0.92173006    -0.78000
C2322       C  0.76040814  0.28659318  0.92112274     0.82700
N2323       N  0.78482209  0.31282315  0.91648353    -0.78000
C2324       C  0.78310887  0.33939129  0.91260308     0.82800
N2325       N  0.75678331  0.33943520  0.91340596    -0.79700
C2326       C  0.59177859  0.34257007  0.92383524     0.03200
C2327       C  0.57151039  0.32524137  0.91288934    -0.12900
C2328       C  0.57601361  0.30374957  0.90390089     0.00700
C2329       C  0.60154960  0.30048151  0.90577794    -0.11500
C2330       C  0.62246806  0.31862237  0.91640798     0.03200
C2331       C  0.61723275  0.33924379  0.92550294    -0.10900
H2332       H  0.55190232  0.32802617  0.91157907     0.08800
H2333       H  0.60522383  0.28389476  0.89898186     0.06300
H2334       H  0.63305700  0.35281113  0.93391405     0.06200
Zr2335     Zr  0.54061584  0.48538420  0.02689350     2.17500
O2336       O  0.52224369  0.45865858  0.04934298    -0.51300
O2337       O  0.53188542  0.02170751  0.03978885    -0.74500
O2338       O  0.57945520  0.49289296  0.04370881    -0.81200
O2339       O  0.96101216  0.44708293  0.01122523    -0.83000
O2340       O  0.61770290  0.00903174  0.03319649    -0.78600
O2341       O  0.98618562  0.45743642  0.03219217    -0.90200
O2342       O  0.55047944  0.06444339  0.02539051    -0.76200
O2343       O  0.57745864  0.02493323  0.01869967    -0.85700
O2344       O  0.52222295  0.50939224  0.01055979    -0.85400
O2345       O  0.57148375  0.46522996  0.01639572    -0.72100
O2346       O  0.51504175  0.44511339  0.00874381    -0.84300
Zr2347     Zr  0.56908562  0.49443830  0.97231873     2.26400
Zr2348     Zr  0.60895467  0.00633391  0.00789360     2.06300
Zr2349     Zr  0.99578217  0.47163600  0.99252763     2.10000
Zr2350     Zr  0.55875301  0.04755272  0.00199670     1.78800
O2351       O  0.95716254  0.41981635  0.98346560    -0.93100
O2352       O  0.60389658  0.09723209  0.00776437    -0.40900
O2353       O  0.53582284  0.00816583  0.98315032    -0.77500
O2354       O  0.59145570  0.03068094  0.99109163    -0.96200
O2355       O  0.58786142  0.47115391  0.98883084    -0.89500
O2356       O  0.52698142  0.44871070  0.98095611    -0.92400
C2357       C  0.54004046  0.05124058  0.03726252     1.01400
C2358       C  0.96224081  0.44429228  0.02465927     1.14300
C2359       C  0.60758917  0.50385621  0.04350769     1.05100
O2360       O  0.65275821  0.05574569  0.01532159    -0.94500
O2361       O  0.64554376  0.02890902  0.98932264    -0.90300
O2362       O  0.62043796  0.01568612  0.96823126    -0.83400
C2363       C  0.64442125  0.02898150  0.97568758     1.11700
O2364       O  0.52343420  0.38552422  0.01570760    -0.96500
Zr2365     Zr  0.54584741  0.42613259  0.99783972     1.88900
O2366       O  0.56972192  0.44875177  0.96000020    -0.73100
O2367       O  0.64331460  0.48518882  0.00943800    -0.52400
O2368       O  0.57992023  0.40799727  0.00644683    -0.97100
O2369       O  0.50288757  0.37712015  0.98908011    -0.54300
O2370       O  0.56259767  0.41166402  0.97638400    -0.73700
C2371       C  0.56860915  0.42236732  0.96381449     0.98700
O2372       O  0.58009782  0.02235273  0.95211235    -0.62500
O2373       O  0.96229155  0.49470336  0.99272456    -0.57300
O2374       O  0.53203222  0.49229425  0.95549017    -0.94000
O2375       O  0.98799984  0.48035931  0.96798038    -0.92400
O2376       O  0.52217176  0.06539944  0.99786060    -0.92700
O2377       O  0.57229995  0.08629306  0.98323544    -0.91500
C2378       C  0.50538169  0.48781686  0.95644784     1.17500
H2379       H  0.50849555  0.51532648  0.01500776     0.33500
H2380       H  0.60764800  0.04946290  0.98720480     0.44300
H2381       H  0.51626272  0.43370669  0.97337664     0.37900
H2382       H  0.57798899  0.45532000  0.02340411     0.34300
H2383       H  0.59733180  0.11370344  0.00909601     0.26100
H2384       H  0.65558945  0.99000168  0.00959802     0.32100
H2385       H  0.59870015  0.42142679  0.00154454     0.38000
H2386       H  0.51015356  0.05188728  0.98968705     0.32400
H2387       H  0.97163251  0.51339426  0.98650552     0.31300
H2388       H  0.94134868  0.42421404  0.97991203     0.33000
H2389       H  0.50666465  0.37457872  0.97892847     0.32000
H2390       H  0.57438225  0.07490607  0.97468278     0.36000
H2391       H  0.59528382  0.04408424  0.95538883     0.28700
H2392       H  0.53117891  0.47561320  0.05692841     0.32900
H2393       H  0.52756083  0.39796019  0.02483528     0.35800
H2394       H  0.94453061  0.47887687  0.98732640     0.28400
H2395       H  0.59058183  0.01439037  0.94566345     0.41300
H2396       H  0.64648405  0.07252205  0.01496428     0.31300
H2397       H  0.60960441  0.09432515  0.01743897     0.38900
H2398       H  0.48654568  0.38261118  0.98892597     0.30800
H2399       H  0.63452103  0.47031086  0.01734274     0.30800
H2400       H  0.53134174  0.44453147  0.05057392     0.31100
C2401       C  0.87423879  0.36018715  0.77811609     0.03200
C2402       C  0.85398084  0.35809188  0.76749711    -0.12900
C2403       C  0.86009372  0.38501008  0.75938338     0.00700
C2404       C  0.88582570  0.41396931  0.76225167    -0.11500
C2405       C  0.90626628  0.41610356  0.77257168     0.03200
C2406       C  0.90036306  0.38926521  0.78049727    -0.10900
H2407       H  0.83431061  0.33545334  0.76518152     0.08800
H2408       H  0.89098177  0.43432136  0.75563935     0.06300
H2409       H  0.91672858  0.39067794  0.78816060     0.06200
C2410       C  0.70170537  0.01087253  0.74458229     0.03200
C2411       C  0.72446500  0.03098078  0.75413820    -0.12900
C2412       C  0.72006981  0.05115600  0.76395226     0.00700
C2413       C  0.69294786  0.05133460  0.76412909    -0.11500
C2414       C  0.67018087  0.03182277  0.75456549     0.03200
C2415       C  0.67459642  0.01151862  0.74483975    -0.10900
H2416       H  0.74569563  0.03130317  0.75382450     0.08800
H2417       H  0.68972614  0.06719746  0.77161663     0.06300
H2418       H  0.65711293  0.99659858  0.73732798     0.06200
C2419       C  0.55338634  0.23600247  0.72240890     0.03200
C2420       C  0.53628728  0.24404664  0.73165724    -0.12900
C2421       C  0.51623589  0.22096140  0.74070146     0.00700
C2422       C  0.51375692  0.19023729  0.74070960    -0.11500
C2423       C  0.53130544  0.18218181  0.73187128     0.03200
C2424       C  0.55073840  0.20506243  0.72253478    -0.10900
H2425       H  0.53895033  0.26818664  0.73200705     0.08800
H2426       H  0.00702939  0.18223845  0.75312492     0.06300
H2427       H  0.56477356  0.19929012  0.71578174     0.06200
C2428       C  0.56279673  0.04231293  0.75600959     0.80300
N2429       N  0.53840952  0.01987624  0.76254009    -0.78000
C2430       C  0.51328242  0.02261752  0.76303467     0.82700
N2431       N  0.51260518  0.04763894  0.75669385    -0.78000
C2432       C  0.53664698  0.07002739  0.75001511     0.82800
N2433       N  0.56176794  0.06730716  0.74978034    -0.79700
Zr2434     Zr  0.88887759  0.19171683  0.80655572     2.17500
O2435       O  0.88696266  0.18321156  0.78081712    -0.51300
O2436       O  0.87849507  0.23568497  0.80185253    -0.74500
O2437       O  0.83932915  0.15584031  0.79738921    -0.81200
O2438       O  0.97362098  0.23500818  0.80444301    -0.83000
O2439       O  0.81083817  0.12674329  0.81545281    -0.78600
O2440       O  0.93129109  0.21516112  0.79124564    -0.90200
O2441       O  0.88318730  0.26323221  0.82256511    -0.76200
O2442       O  0.85917165  0.19152328  0.82595847    -0.85700
O2443       O  0.92130193  0.23530889  0.82186790    -0.85400
O2444       O  0.87105372  0.13956251  0.81651544    -0.72100
O2445       O  0.92783915  0.18015968  0.81316261    -0.84300
Zr2446     Zr  0.91136088  0.17037699  0.85896178     2.26400
Zr2447     Zr  0.84211792  0.14015936  0.83646341     2.06300
Zr2448     Zr  0.95923310  0.22298914  0.82916409     2.10000
Zr2449     Zr  0.89177981  0.23466136  0.84138060     1.78800
O2450       O  0.00359694  0.21796951  0.82476374    -0.93100
O2451       O  0.84472516  0.23357680  0.84634513    -0.40900
O2452       O  0.92995782  0.22279562  0.84905248    -0.77500
O2453       O  0.87347520  0.18382306  0.85223248    -0.96200
O2454       O  0.87997674  0.12729894  0.84330046    -0.89500
O2455       O  0.94200172  0.17163558  0.83971663    -0.92400
C2456       C  0.87845302  0.25902500  0.80911332     1.01400
C2457       C  0.95957946  0.22918682  0.79249319     1.14300
C2458       C  0.81479094  0.13443627  0.80236228     1.05100
O2459       O  0.79687516  0.14223138  0.84227481    -0.94500
O2460       O  0.82630428  0.12550589  0.86083787    -0.90300
O2461       O  0.86844259  0.14581066  0.87415568    -0.83400
C2462       C  0.84011177  0.13134691  0.87284275     1.11700
O2463       O  0.91033754  0.11143523  0.79918061    -0.96500
Zr2464     Zr  0.91033047  0.12920145  0.82376061     1.88900
O2465       O  0.92188679  0.12584581  0.86308173    -0.73100
O2466       O  0.81725583  0.08166854  0.83490154    -0.52400
O2467       O  0.87548326  0.07298902  0.81839407    -0.97100
O2468       O  0.95847022  0.13295245  0.81865802    -0.54300
O2469       O  0.91664168  0.09859931  0.84221710    -0.73700
C2470       C  0.92110035  0.10216848  0.85567721     0.98700
O2471       O  0.91309218  0.17393893  0.88489363    -0.62500
O2472       O  0.98604176  0.28153661  0.82892848    -0.57300
O2473       O  0.95907076  0.20990812  0.86859128    -0.94000
O2474       O  0.98890734  0.23884288  0.85084668    -0.92400
O2475       O  0.93023699  0.28980858  0.84600322    -0.92700
O2476       O  0.89142346  0.25526102  0.86535647    -0.91500
C2477       C  0.98380200  0.23159695  0.86395919     1.17500
H2478       H  0.92990268  0.25562858  0.81708716     0.33500
H2479       H  0.86265584  0.18547461  0.86034968     0.44300
H2480       H  0.95834735  0.16894389  0.84305704     0.37900
H2481       H  0.85911698  0.12275613  0.80968775     0.34300
H2482       H  0.84958994  0.25646614  0.84726003     0.26100
H2483       H  0.79604125  0.07524543  0.83613219     0.32100
H2484       H  0.86319148  0.06554505  0.82697448     0.38000
H2485       H  0.92107130  0.30325235  0.84340985     0.32400
H2486       H  0.48600591  0.28310190  0.83349577     0.31300
H2487       H  0.51604865  0.22499120  0.82036621     0.33000
H2488       H  0.96779425  0.13403457  0.82800537     0.32000
H2489       H  0.90151798  0.24632985  0.87128285     0.36000
H2490       H  0.93031468  0.17138697  0.88787415     0.28700
H2491       H  0.87251770  0.18963141  0.77719379     0.32900
H2492       H  0.91951044  0.09718171  0.79942045     0.35800
H2493       H  0.00606620  0.28676041  0.82557665     0.28400
H2494       H  0.91824389  0.19642452  0.88750886     0.41300
H2495       H  0.80117824  0.16433202  0.84006990     0.31300
H2496       H  0.83315634  0.22582933  0.83733590     0.38900
H2497       H  0.97030020  0.15459857  0.81479390     0.30800
H2498       H  0.81876701  0.07630269  0.82478937     0.30800
H2499       H  0.87772849  0.15966768  0.77908959     0.31100
C2500       C  0.74957846  0.18381972  0.56363242     0.03200
C2501       C  0.77671544  0.18381320  0.56156984    -0.12900
C2502       C  0.80144549  0.20327652  0.57024082     0.00700
C2503       C  0.79883755  0.22263543  0.58111408    -0.11500
C2504       C  0.77198167  0.22290403  0.58325535     0.03200
C2505       C  0.74739513  0.20344278  0.57453981    -0.10900
H2506       H  0.77858694  0.16861732  0.55324241     0.08800
H2507       H  0.81774074  0.23754344  0.58793239     0.06300
H2508       H  0.72665342  0.20377167  0.57619779     0.06200
C2509       C  0.63116901  0.35631392  0.56840013     0.03200
C2510       C  0.60272569  0.33062260  0.56589274    -0.12900
C2511       C  0.58520067  0.33093774  0.55456640     0.00700
C2512       C  0.59656848  0.35681854  0.54543719    -0.11500
C2513       C  0.62504405  0.38280796  0.54783294     0.03200
C2514       C  0.64232746  0.38237481  0.55931185    -0.10900
H2515       H  0.59365825  0.31100134  0.57319649     0.08800
H2516       H  0.58256985  0.35762511  0.53701559     0.06300
H2517       H  0.66375628  0.40296752  0.56158050     0.06200
C2518       C  0.93509812  0.02383109  0.61223368     0.03200
C2519       C  0.93449238  0.05310183  0.61158478    -0.12900
C2520       C  0.95229456  0.07612873  0.60189902     0.00700
C2521       C  0.97170189  0.07025438  0.59336079    -0.11500
C2522       C  0.97222070  0.04101452  0.59383382     0.03200
C2523       C  0.95372720  0.01768760  0.60322098    -0.10900
H2524       H  0.91899789  0.05714898  0.61802671     0.08800
H2525       H  0.48193019  0.08456219  0.58191047     0.06300
H2526       H  0.95244674  0.49109092  0.60037764     0.06200
C2527       C  0.91416828  0.20445609  0.56970148     0.80300
N2528       N  0.91557012  0.18165081  0.57768877    -0.78000
C2529       C  0.94165429  0.18150934  0.57968452     0.82700
N2530       N  0.96608312  0.20378645  0.57331840    -0.78000
C2531       C  0.96523536  0.22644577  0.56519974     0.82800
N2532       N  0.93923012  0.22719000  0.56356170    -0.79700
Zr2533     Zr  0.72850385  0.36186359  0.69147483     2.17500
O2534       O  0.71162615  0.32459377  0.71097131    -0.51300
O2535       O  0.72500861  0.40507396  0.70456941    -0.74500
O2536       O  0.76743092  0.37218853  0.70892201    -0.81200
O2537       O  0.65018740  0.31842758  0.67507463    -0.83000
O2538       O  0.81102343  0.39249124  0.69726764    -0.78600
O2539       O  0.67591338  0.33304760  0.69603738    -0.90200
O2540       O  0.73202025  0.44343976  0.68881605    -0.76200
O2541       O  0.76858988  0.40992033  0.68323392    -0.85700
O2542       O  0.70732528  0.38219022  0.67474915    -0.85400
O2543       O  0.76193764  0.34554936  0.68083744    -0.72100
O2544       O  0.70544704  0.32066845  0.67320333    -0.84300
Zr2545     Zr  0.75877644  0.37412164  0.63698271     2.26400
Zr2546     Zr  0.80157750  0.39383180  0.67206563     2.06300
Zr2547     Zr  0.68553386  0.34208922  0.65619751     2.10000
Zr2548     Zr  0.74731681  0.42991228  0.66647013     1.78800
O2549       O  0.64973516  0.28877792  0.64719045    -0.93100
O2550       O  0.79026458  0.47923417  0.67489297    -0.40900
O2551       O  0.72521426  0.39034349  0.64760572    -0.77500
O2552       O  0.78119893  0.41546276  0.65530792    -0.96200
O2553       O  0.77983966  0.35325932  0.65356185    -0.89500
O2554       O  0.71861640  0.32613079  0.64526191    -0.92400
C2555       C  0.72585617  0.43161666  0.70121254     1.01400
C2556       C  0.65175527  0.31880960  0.68870268     1.14300
C2557       C  0.79558245  0.38297795  0.70858499     1.05100
O2558       O  0.84100752  0.44636862  0.67990869    -0.94500
O2559       O  0.83710675  0.41896661  0.65329046    -0.90300
O2560       O  0.81132127  0.40575409  0.63238244    -0.83400
C2561       C  0.83541476  0.42028593  0.63972570     1.11700
O2562       O  0.72429140  0.26690434  0.68097817    -0.96500
Zr2563     Zr  0.73933654  0.30583317  0.66219291     1.88900
O2564       O  0.76281688  0.33055334  0.62436978    -0.73100
O2565       O  0.83310765  0.36858163  0.67389823    -0.52400
O2566       O  0.77690880  0.29077375  0.66865158    -0.97100
O2567       O  0.69589139  0.25565177  0.65495766    -0.54300
O2568       O  0.75272466  0.29073489  0.63977074    -0.73700
C2569       C  0.75994779  0.30293286  0.62749498     0.98700
O2570       O  0.76943131  0.40666396  0.61593613    -0.62500
O2571       O  0.64997561  0.36235238  0.65508616    -0.57300
O2572       O  0.72066900  0.36567217  0.61947034    -0.94000
O2573       O  0.67755964  0.34832449  0.63134236    -0.92400
O2574       O  0.70912919  0.44419016  0.66027844    -0.92700
O2575       O  0.76437942  0.47084366  0.64856438    -0.91500
C2576       C  0.69287152  0.35695479  0.61998078     1.17500
H2577       H  0.69237252  0.38642760  0.67903526     0.33500
H2578       H  0.79653120  0.43505762  0.65143456     0.44300
H2579       H  0.70887652  0.31088415  0.63749333     0.37900
H2580       H  0.76920388  0.33641988  0.68786528     0.34300
H2581       H  0.78282288  0.49492153  0.67631978     0.26100
H2582       H  0.85074579  0.38444335  0.67936917     0.32100
H2583       H  0.79239193  0.30041734  0.66140035     0.38000
H2584       H  0.71468513  0.46463831  0.66562159     0.32400
H2585       H  0.65858209  0.38032224  0.64845201     0.31300
H2586       H  0.63371250  0.29175493  0.64281744     0.33000
H2587       H  0.69414188  0.25643526  0.64451940     0.32000
H2588       H  0.76306800  0.45898553  0.63951650     0.36000
H2589       H  0.78212439  0.42918061  0.61932027     0.28700
H2590       H  0.71670803  0.33806938  0.71982455     0.32900
H2591       H  0.72293100  0.24705176  0.67649677     0.35800
H2592       H  0.63260230  0.34524499  0.64989429     0.28400
H2593       H  0.78233131  0.40123315  0.60990749     0.41300
H2594       H  0.83917143  0.46177891  0.67362177     0.31300
H2595       H  0.79431184  0.47476870  0.68463262     0.38900
H2596       H  0.67890581  0.25775797  0.65876555     0.30800
H2597       H  0.82270019  0.35077848  0.68049417     0.30800
H2598       H  0.72470347  0.31453931  0.71100541     0.31100
C2599       C  0.88675328  0.35830230  0.43466909     0.03200
C2600       C  0.85989510  0.35940990  0.43600983    -0.12900
C2601       C  0.83510367  0.33909882  0.42749295     0.00700
C2602       C  0.83744045  0.31789141  0.41752188    -0.11500
C2603       C  0.86411575  0.31689544  0.41586810     0.03200
C2604       C  0.88851452  0.33675067  0.42462701    -0.10900
H2605       H  0.85834200  0.37623741  0.44356530     0.08800
H2606       H  0.81853669  0.30253037  0.41080047     0.06300
H2607       H  0.90903888  0.33572314  0.42346745     0.06200
C2608       C  0.01011011  0.21045330  0.43157551     0.03200
C2609       C  0.53675755  0.23151785  0.43229580    -0.12900
C2610       C  0.55589460  0.23049105  0.44265561     0.00700
C2611       C  0.54564337  0.20404398  0.45140456    -0.11500
C2612       C  0.51662103  0.17860071  0.44984412     0.03200
C2613       C  0.00011453  0.18317519  0.44001466    -0.10900
H2614       H  0.54494877  0.25141677  0.42514910     0.08800
H2615       H  0.56077998  0.20258524  0.45900192     0.06300
H2616       H  0.97858621  0.16264928  0.43789796     0.06200
C2617       C  0.70330249  0.03428356  0.38782761     0.03200
C2618       C  0.68072425  0.03573986  0.39567622    -0.12900
C2619       C  0.66195067  0.00967674  0.40392830     0.00700
C2620       C  0.66490431  0.47711890  0.40192646    -0.11500
C2621       C  0.68527176  0.47246129  0.39361981     0.03200
C2622       C  0.70707715  0.00687077  0.38809669    -0.10900
H2623       H  0.67831625  0.05726825  0.39560535     0.08800
H2624       H  0.65121482  0.45892456  0.40930077     0.06300
H2625       H  0.72499994  0.00614267  0.38228591     0.06200
C2626       C  0.72508381  0.34510207  0.42563053     0.80300
N2627       N  0.70014985  0.32326585  0.43222030    -0.78000
C2628       C  0.67440758  0.32477058  0.43094753     0.82700
N2629       N  0.67368254  0.34747661  0.42279640    -0.78000
C2630       C  0.69796705  0.36881604  0.41596134     0.82800
N2631       N  0.72373187  0.36773752  0.41751784    -0.79700
Zr2632     Zr  0.58657363  0.02451340  0.52418561     2.17500
O2633       O  0.59079954  0.51606833  0.54760061    -0.51300
O2634       O  0.62988400  0.07318989  0.53280644    -0.74500
O2635       O  0.61748654  0.50154189  0.52614066    -0.81200
O2636       O  0.51945994  0.03568648  0.53359655    -0.83000
O2637       O  0.62836759  0.48709034  0.50466239    -0.78600
O2638       O  0.55533612  0.02666569  0.54326401    -0.90200
O2639       O  0.64830658  0.10836125  0.51502876    -0.76200
O2640       O  0.61867110  0.04369362  0.50445851    -0.85700
O2641       O  0.58089030  0.06809004  0.51566899    -0.85400
O2642       O  0.57449659  0.48671340  0.50668412    -0.72100
O2643       O  0.53516748  0.00198675  0.51777953    -0.84300
Zr2644     Zr  0.54432112  0.02081478  0.47188647     2.26400
Zr2645     Zr  0.60081005  0.99953733  0.48744782     2.06300
Zr2646     Zr  0.52986692  0.04548589  0.50863825     2.10000
Zr2647     Zr  0.61243824  0.08678849  0.49572781     1.78800
O2648       O  0.97609049  0.01926179  0.51079377    -0.93100
O2649       O  0.66052607  0.10339181  0.48484888    -0.40900
O2650       O  0.56162641  0.06530709  0.48865689    -0.77500
O2651       O  0.59593042  0.04363279  0.47841850    -0.96200
O2652       O  0.54981860  0.97717325  0.48057913    -0.89500
O2653       O  0.51213400  0.00155672  0.49159711    -0.92400
C2654       C  0.64923716  0.09978233  0.52771757     1.01400
C2655       C  0.53214202  0.03027778  0.54411329     1.14300
C2656       C  0.62811870  0.48693495  0.51830278     1.05100
O2657       O  0.65294737  0.02538348  0.48126180    -0.94500
O2658       O  0.60465379  0.99897088  0.46179082    -0.90300
O2659       O  0.57341898  0.01567561  0.45262904    -0.83400
C2660       C  0.59357965  0.00715412  0.45148868     1.11700
O2661       O  0.01265861  0.42439217  0.52105419    -0.96500
Zr2662     Zr  0.52410328  0.46522392  0.49934286     1.88900
O2663       O  0.50041523  0.97200146  0.46355608    -0.73100
O2664       O  0.60002223  0.45500680  0.47819032    -0.52400
O2665       O  0.52653736  0.41669276  0.49204688    -0.97100
O2666       O  0.97720122  0.44604371  0.51326854    -0.54300
O2667       O  0.98899698  0.43763197  0.48237016    -0.73700
C2668       C  0.48678028  0.44954819  0.46758832     0.98700
O2669       O  0.54071787  0.03570230  0.44759827    -0.62500
O2670       O  0.54011999  0.09656194  0.52013647    -0.57300
O2671       O  0.52333394  0.05739532  0.46999847    -0.94000
O2672       O  0.51413727  0.07206301  0.49181090    -0.92400
O2673       O  0.61015345  0.13522552  0.50325331    -0.92700
O2674       O  0.62215721  0.12508497  0.47708579    -0.91500
C2675       C  0.51459390  0.07327185  0.47822328     1.17500
H2676       H  0.58594710  0.08451944  0.52292230     0.33500
H2677       H  0.60845896  0.05266365  0.47037693     0.44300
H2678       H  0.49185482  0.99489569  0.48880293     0.37900
H2679       H  0.57512008  0.46858606  0.51075232     0.34300
H2680       H  0.66898182  0.09146352  0.48987743     0.26100
H2681       H  0.62023498  0.45756172  0.47730615     0.32100
H2682       H  0.01102347  0.39991937  0.48926563     0.38000
H2683       H  0.61577715  0.13864419  0.51346012     0.32400
H2684       H  0.55055202  0.11280743  0.51289197     0.31300
H2685       H  0.97216172  0.03112309  0.51861187     0.33000
H2686       H  0.96637620  0.45329111  0.50690859     0.32000
H2687       H  0.61695378  0.11202306  0.46811795     0.36000
H2688       H  0.51964106  0.02964219  0.44594388     0.28700
H2689       H  0.61186250  0.52606690  0.55059544     0.32900
H2690       H  0.99695571  0.40343090  0.51726394     0.35800
H2691       H  0.52053567  0.09566285  0.52096112     0.28400
H2692       H  0.55147355  0.05950481  0.44759262     0.41300
H2693       H  0.66374841  0.03510441  0.49031254     0.31300
H2694       H  0.65635900  0.09380028  0.47508638     0.38900
H2695       H  0.98229414  0.46062410  0.52176758     0.30800
H2696       H  0.59132916  0.44053763  0.48623474     0.30800
H2697       H  0.58394382  0.49263786  0.54710741     0.31100
C2698       C  0.90453586  0.49131848  0.23429710     0.03200
C2699       C  0.90261941  0.51398788  0.24357762    -0.12900
C2700       C  0.92963975  0.03537223  0.25268888     0.00700
C2701       C  0.95623556  0.03416782  0.25113730    -0.11500
C2702       C  0.95625368  0.51204048  0.24131831     0.03200
C2703       C  0.93138720  0.49040315  0.23322510    -0.10900
H2704       H  0.88178524  0.51441427  0.24461179     0.08800
H2705       H  0.97524061  0.04989045  0.25772091     0.06300
H2706       H  0.93305244  0.47320070  0.22593827     0.06200
C2707       C  0.78235303  0.15241537  0.23640658     0.03200
C2708       C  0.75402975  0.12652754  0.23362284    -0.12900
C2709       C  0.73577313  0.12809311  0.22298405     0.00700
C2710       C  0.74637474  0.15494432  0.21452818    -0.11500
C2711       C  0.77504137  0.18047949  0.21674196     0.03200
C2712       C  0.79296480  0.17921813  0.22771026    -0.10900
H2713       H  0.74537464  0.10585808  0.24033623     0.08800
H2714       H  0.73180707  0.15657199  0.20663762     0.06300
H2715       H  0.81435360  0.19985210  0.22994788     0.06200
C2716       C  0.58576880  0.32681065  0.27835941     0.03200
C2717       C  0.60505672  0.32125562  0.26951303    -0.12900
C2718       C  0.62468747  0.34550117  0.26070431     0.00700
C2719       C  0.62425130  0.37484676  0.26054136    -0.11500
C2720       C  0.60405657  0.38008509  0.26875761     0.03200
C2721       C  0.58537492  0.35625312  0.27794836    -0.10900
H2722       H  0.60431021  0.29797316  0.26924908     0.08800
H2723       H  0.63805649  0.39270094  0.25305820     0.06300
H2724       H  0.56950744  0.35993071  0.28425356     0.06200
C2725       C  0.56756632  0.01032995  0.23746822     0.80300
N2726       N  0.59271726  0.03325519  0.23157428    -0.78000
C2727       C  0.61785765  0.03048634  0.23175762     0.82700
N2728       N  0.61967203  0.50962360  0.24046668    -0.78000
C2729       C  0.59508834  0.48700238  0.24667203     0.82800
N2730       N  0.56939524  0.48833827  0.24540225    -0.79700
Zr2731     Zr  0.74183348  0.33051611  0.19296347     2.17500
O2732       O  0.73432411  0.30512612  0.21591801    -0.51300
O2733       O  0.78653279  0.37670425  0.20281618    -0.74500
O2734       O  0.76752824  0.29887815  0.19552216    -0.81200
O2735       O  0.67464050  0.34168498  0.20082127    -0.83000
O2736       O  0.77960970  0.28670113  0.17383761    -0.78600
O2737       O  0.71184460  0.33682504  0.21166554    -0.90200
O2738       O  0.80217743  0.41690346  0.18713713    -0.76200
O2739       O  0.77704218  0.35325728  0.17462345    -0.85700
O2740       O  0.73695137  0.37502206  0.18488412    -0.85400
O2741       O  0.72674803  0.28810822  0.17499018    -0.72100
O2742       O  0.69148777  0.30863840  0.18463453    -0.84300
Zr2743     Zr  0.70810023  0.33403124  0.13938446     2.26400
Zr2744     Zr  0.76252938  0.31164235  0.15663178     2.06300
Zr2745     Zr  0.68724018  0.35324460  0.17608664     2.10000
Zr2746     Zr  0.77125712  0.39692629  0.16616982     1.78800
O2747       O  0.63345097  0.32880096  0.17602822    -0.93100
O2748       O  0.82141298  0.41537176  0.15763353    -0.40900
O2749       O  0.72186360  0.37598880  0.15732315    -0.77500
O2750       O  0.75850604  0.35647613  0.14784289    -0.96200
O2751       O  0.71264427  0.28950340  0.14766380    -0.89500
O2752       O  0.67278542  0.31227378  0.15778588    -0.92400
C2753       C  0.80420612  0.40545416  0.19898187     1.01400
C2754       C  0.68752301  0.33834637  0.21183516     1.14300
C2755       C  0.77820574  0.28474326  0.18740419     1.05100
O2756       O  0.81632816  0.34219048  0.15605955    -0.94500
O2757       O  0.77272243  0.31702997  0.13152943    -0.90300
O2758       O  0.73911486  0.32845081  0.12097135    -0.83400
C2759       C  0.76149172  0.32322856  0.12065695     1.11700
O2760       O  0.66375171  0.22778815  0.18427022    -0.96500
Zr2761     Zr  0.67748692  0.26808642  0.16616607     1.88900
O2762       O  0.66296565  0.28882684  0.12955759    -0.73100
O2763       O  0.76059487  0.26322851  0.14585803    -0.52400
O2764       O  0.67973599  0.21952851  0.15878463    -0.97100
O2765       O  0.62818852  0.25321685  0.17512573    -0.54300
O2766       O  0.64598003  0.24877537  0.14530823    -0.73700
C2767       C  0.64427210  0.26061969  0.13351179     0.98700
O2768       O  0.70963988  0.35250118  0.11527117    -0.62500
O2769       O  0.69300770  0.40186762  0.18843630    -0.57300
O2770       O  0.68770583  0.37102171  0.13754725    -0.94000
O2771       O  0.67394589  0.38177246  0.15910640    -0.92400
O2772       O  0.76690314  0.44408463  0.17378134    -0.92700
O2773       O  0.78368512  0.43578988  0.14753149    -0.91500
C2774       C  0.67689519  0.38509859  0.14563532     1.17500
H2775       H  0.74085824  0.39069712  0.19248044     0.33500
H2776       H  0.77232579  0.36691801  0.14036937     0.44300
H2777       H  0.65309470  0.30631284  0.15444794     0.37900
H2778       H  0.72656206  0.26917877  0.17858868     0.34300
H2779       H  0.83255279  0.43806890  0.16104236     0.26100
H2780       H  0.78012863  0.26476150  0.14797660     0.32100
H2781       H  0.68553940  0.22255080  0.14868840     0.38000
H2782       H  0.78753593  0.46168947  0.17457559     0.32400
H2783       H  0.70454317  0.41944634  0.18191251     0.31300
H2784       H  0.62897578  0.34066903  0.18362210     0.33000
H2785       H  0.61919641  0.26167083  0.16826968     0.32000
H2786       H  0.76466177  0.42943284  0.14251075     0.36000
H2787       H  0.68878934  0.34556216  0.11254651     0.28700
H2788       H  0.75428812  0.31149235  0.21986429     0.32900
H2789       H  0.64432130  0.20992724  0.18114041     0.35800
H2790       H  0.67294482  0.39992209  0.18835174     0.28400
H2791       H  0.71922729  0.37625866  0.11605600     0.41300
H2792       H  0.82314936  0.32584791  0.15616656     0.31300
H2793       H  0.82942281  0.40403133  0.16341567     0.38900
H2794       H  0.63165997  0.26679714  0.18384934     0.30800
H2795       H  0.74641764  0.24548015  0.15168380     0.30800
H2796       H  0.72545010  0.28174433  0.21372535     0.31100
Zr2797     Zr  0.91097941  0.18310188  0.30675299     2.17500
O2798       O  0.92223033  0.21714541  0.28621747    -0.51300
O2799       O  0.91657341  0.14137490  0.29364703    -0.74500
O2800       O  0.96367814  0.21346476  0.30248565    -0.81200
O2801       O  0.82877046  0.15108865  0.30043512    -0.83000
O2802       O  0.98927150  0.22832264  0.32345180    -0.78600
O2803       O  0.87239390  0.17036167  0.28888292    -0.90200
O2804       O  0.90838413  0.10182064  0.30889856    -0.76200
O2805       O  0.93365509  0.16474557  0.32364626    -0.85700
O2806       O  0.87255035  0.13366410  0.31479596    -0.85400
O2807       O  0.93155888  0.22496666  0.32496912    -0.72100
O2808       O  0.87504150  0.19631918  0.31688569    -0.84300
Zr2809     Zr  0.87915835  0.16868610  0.36078891     2.26400
Zr2810     Zr  0.95310990  0.20556253  0.34218295     2.06300
Zr2811     Zr  0.83726348  0.14667432  0.32540914     2.10000
Zr2812     Zr  0.89494908  0.11561259  0.33180836     1.78800
O2813       O  0.79799881  0.16119587  0.32275760    -0.93100
O2814       O  0.93403805  0.10189201  0.33691770    -0.40900
O2815       O  0.85851818  0.12701758  0.34258770    -0.77500
O2816       O  0.91526281  0.15566629  0.35065432    -0.96200
O2817       O  0.91742392  0.21805486  0.35261170    -0.89500
O2818       O  0.85673254  0.18728160  0.34387658    -0.92400
C2819       C  0.91481172  0.11422880  0.29660051     1.01400
C2820       C  0.84421216  0.15948726  0.28910160     1.14300
C2821       C  0.98776756  0.22813051  0.30981899     1.05100
O2822       O  0.98900136  0.18661239  0.34597839    -0.94500
O2823       O  0.96110947  0.20774636  0.36784792    -0.90300
O2824       O  0.91708034  0.18472940  0.37914667    -0.83400
C2825       C  0.94545697  0.19869637  0.37915781     1.11700
O2826       O  0.90894383  0.27401740  0.31639617    -0.96500
Zr2827     Zr  0.89517298  0.23639634  0.33566851     1.88900
O2828       O  0.87616318  0.21158742  0.37420351    -0.73100
O2829       O  0.98738928  0.26100608  0.34933522    -0.52400
O2830       O  0.93583479  0.28889253  0.34260116    -0.97100
O2831       O  0.85443402  0.24762550  0.33076569    -0.54300
O2832       O  0.88366474  0.25092494  0.35888439    -0.73700
C2833       C  0.87823749  0.23889389  0.37127906     0.98700
O2834       O  0.86601198  0.12969312  0.37954924    -0.62500
O2835       O  0.80532837  0.09158888  0.31695142    -0.57300
O2836       O  0.82658409  0.14089124  0.36563290    -0.94000
O2837       O  0.80222041  0.12410334  0.34441273    -0.92400
O2838       O  0.85217382  0.06459805  0.32504317    -0.92700
O2839       O  0.88319065  0.07634932  0.35020137    -0.91500
C2840       C  0.80290383  0.12539304  0.35804938     1.17500
H2841       H  0.86351531  0.11806859  0.30702708     0.33500
H2842       H  0.92331234  0.14784652  0.35793840     0.44300
H2843       H  0.84121231  0.19052707  0.34810453     0.37900
H2844       H  0.94663841  0.24468678  0.32101091     0.34300
H2845       H  0.94808959  0.11063000  0.32900416     0.26100
H2846       H  0.00660064  0.26133814  0.35087201     0.32100
H2847       H  0.94477758  0.28505676  0.35115272     0.38000
H2848       H  0.86058978  0.05051573  0.32191506     0.32400
H2849       H  0.80418137  0.07821557  0.32506701     0.31300
H2850       H  0.78126120  0.14190483  0.31829490     0.33000
H2851       H  0.84093629  0.23911755  0.33890023     0.32000
H2852       H  0.88008407  0.08674098  0.35883879     0.36000
H2853       H  0.85003854  0.10931489  0.37542955     0.28700
H2854       H  0.93417148  0.21092438  0.27986356     0.32900
H2855       H  0.90495828  0.29147686  0.31990706     0.35800
H2856       H  0.78534699  0.08974946  0.31625198     0.28400
H2857       H  0.88299930  0.12537023  0.38042018     0.41300
H2858       H  0.00683016  0.20568354  0.34984253     0.31300
H2859       H  0.94484260  0.11571974  0.34526841     0.38900
H2860       H  0.84351592  0.23294323  0.32265369     0.30800
H2861       H  0.99020585  0.27361714  0.34071631     0.30800
H2862       H  0.93604784  0.23919701  0.28977408     0.31100
C2863       C  0.57085378  0.43168984  0.25652788    -0.21200
C2864       C  0.59653832  0.46104234  0.25452654    -0.09300
C2865       C  0.62391222  0.46473092  0.25948650     0.29600
C2866       C  0.62575865  0.43883781  0.26516691    -0.21200
C2867       C  0.60049628  0.40879183  0.26610415    -0.09300
C2868       C  0.57273435  0.40572741  0.26227662     0.29600
F2869       F  0.54773933  0.37705368  0.26303870    -0.19800
H2870       H  0.54946489  0.42827083  0.25297711     0.18000
H2871       H  0.64726167  0.44186042  0.26828191     0.18000
F2872       F  0.64913853  0.49313142  0.25856739    -0.19800
C2873       C  0.53824053  0.28026310  0.30888244    -0.21200
C2874       C  0.51406973  0.25516479  0.30154148    -0.09300
C2875       C  0.51539365  0.25229448  0.28662114     0.29600
C2876       C  0.53979254  0.27469665  0.27927654    -0.21200
C2877       C  0.56301675  0.30062042  0.28656219    -0.09300
C2878       C  0.56237549  0.30305513  0.30144731     0.29600
F2879       F  0.58462787  0.32803405  0.30872199    -0.19800
H2880       H  0.53780975  0.28324838  0.32031957     0.18000
H2881       H  0.53988918  0.27273122  0.26777899     0.18000
F2882       F  0.49272214  0.22850639  0.27902166    -0.19800
C2883       C  0.62765404  0.31580728  0.23911430    -0.21200
C2884       C  0.64236244  0.33920211  0.24989177    -0.09300
C2885       C  0.67298025  0.35988331  0.24880099     0.29600
C2886       C  0.68826161  0.35797547  0.23678627    -0.21200
C2887       C  0.67298380  0.33616664  0.22555269    -0.09300
C2888       C  0.64272248  0.31452445  0.22694951     0.29600
F2889       F  0.62752587  0.29294495  0.21628880    -0.19800
H2890       H  0.60402841  0.29997947  0.23967694     0.18000
H2891       H  0.71155901  0.37490903  0.23583844     0.18000
F2892       F  0.68769546  0.38297068  0.25900451    -0.19800
C2893       C  0.68225358  0.11196663  0.22494429    -0.21200
C2894       C  0.70449113  0.10341577  0.22210082    -0.09300
C2895       C  0.69697266  0.07095141  0.22030379     0.29600
C2896       C  0.66792799  0.04729012  0.22228909    -0.21200
C2897       C  0.64603656  0.05563647  0.22631469    -0.09300
C2898       C  0.65311898  0.08823527  0.22707782     0.29600
F2899       F  0.63271973  0.09725737  0.23114588    -0.19800
H2900       H  0.68786513  0.13700744  0.22648450     0.18000
H2901       H  0.66290344  0.02232223  0.22144968     0.18000
F2902       F  0.71805917  0.06218241  0.21736159    -0.19800
C2903       C  0.78074068  0.20805047  0.19397959    -0.21200
C2904       C  0.78395185  0.21000732  0.20882425    -0.09300
C2905       C  0.79055525  0.23893434  0.21615598     0.29600
C2906       C  0.79165655  0.26465591  0.20882196    -0.21200
C2907       C  0.78593428  0.26184905  0.19411081    -0.09300
C2908       C  0.78169465  0.23369861  0.18662260     0.29600
F2909       F  0.77526914  0.22943584  0.17248156    -0.19800
H2910       H  0.77541996  0.18577694  0.18820806     0.18000
H2911       H  0.79479890  0.28593822  0.21483255     0.18000
F2912       F  0.79274081  0.24116488  0.23056060    -0.19800
C2913       C  0.78293121  0.14283763  0.26226475    -0.21200
C2914       C  0.79862572  0.15312801  0.24957299    -0.09300
C2915       C  0.82944980  0.16483685  0.24986148     0.29600
C2916       C  0.84413228  0.16666528  0.26268294    -0.21200
C2917       C  0.82838701  0.15664015  0.27544393    -0.09300
C2918       C  0.79738533  0.14420288  0.27498245     0.29600
F2919       F  0.78073756  0.13343004  0.28679322    -0.19800
H2920       H  0.75925705  0.13418137  0.26244753     0.18000
H2921       H  0.86790306  0.17602674  0.26259419     0.18000
F2922       F  0.84532479  0.17403728  0.23775165    -0.19800
C2923       C  0.51465180  0.04516419  0.23771381    -0.21200
C2924       C  0.98439218  0.51067546  0.24048934    -0.09300
C2925       C  0.98497707  0.48186203  0.24291177     0.29600
C2926       C  0.51324317  0.48550016  0.23986054    -0.21200
C2927       C  0.53994795  0.51358235  0.23745344    -0.09300
C2928       C  0.54094828  0.04320618  0.23747579     0.29600
F2929       F  0.56712003  0.07081981  0.23792970    -0.19800
H2930       H  0.51580963  0.06861902  0.23767511     0.18000
H2931       H  0.51320983  0.46307528  0.24189094     0.18000
F2932       F  0.95971199  0.45470955  0.24579665    -0.19800
C2933       C  0.84200819  0.41475582  0.21797891    -0.21200
C2934       C  0.82894800  0.42717049  0.20861995    -0.09300
C2935       C  0.84080319  0.46081805  0.20800821     0.29600
C2936       C  0.86510139  0.48134794  0.21652078    -0.21200
C2937       C  0.87850031  0.46896014  0.22559435    -0.09300
C2938       C  0.86681055  0.43546476  0.22629264     0.29600
F2939       F  0.87918082  0.42283506  0.23512480    -0.19800
H2940       H  0.83347894  0.38904198  0.21859562     0.18000
H2941       H  0.87383291  0.50709464  0.21586054     0.18000
F2942       F  0.82886140  0.47401995  0.19923381    -0.19800
C2943       C  0.92967477  0.07326604  0.28860313    -0.21200
C2944       C  0.92016312  0.09560532  0.28510598    -0.09300
C2945       C  0.91484453  0.09882886  0.27069325     0.29600
C2946       C  0.91797689  0.07920392  0.26015804    -0.21200
C2947       C  0.92716800  0.05672307  0.26375483    -0.09300
C2948       C  0.93342547  0.05423120  0.27804823     0.29600
F2949       F  0.94223157  0.03259715  0.28185874    -0.19800
H2950       H  0.93414396  0.07042503  0.29956750     0.18000
H2951       H  0.91324492  0.08153816  0.24916853     0.18000
F2952       F  0.90570211  0.12012740  0.26679823    -0.19800
C2953       C  0.71756341  0.44793345  0.39902377    -0.21200
C2954       C  0.68921191  0.44392245  0.39592609    -0.09300
C2955       C  0.66450554  0.41349513  0.39730591     0.29600
C2956       C  0.66788690  0.38859812  0.40303537    -0.21200
C2957       C  0.69593657  0.39345043  0.40741653    -0.09300
C2958       C  0.72099917  0.42289614  0.40467615     0.29600
F2959       F  0.74855974  0.42848533  0.40846952    -0.19800
H2960       H  0.73694482  0.47117962  0.39807275     0.18000
H2961       H  0.64825972  0.36585125  0.40460783     0.18000
F2962       F  0.63690041  0.40832678  0.39381384    -0.19800
C2963       C  0.72482437  0.06129674  0.36546073    -0.21200
C2964       C  0.72513876  0.06213762  0.38031358    -0.09300
C2965       C  0.74929506  0.08652051  0.38782072     0.29600
C2966       C  0.77398015  0.10841612  0.38047695    -0.21200
C2967       C  0.77473732  0.10636356  0.36553732    -0.09300
C2968       C  0.74920759  0.08344339  0.35806294     0.29600
F2969       F  0.74835676  0.08084409  0.34365061    -0.19800
H2970       H  0.70627703  0.04237006  0.35960784     0.18000
H2971       H  0.79303121  0.12594159  0.38654281     0.18000
F2972       F  0.74989932  0.08753956  0.40225692    -0.19800
C2973       C  0.64895063  0.03917202  0.42251716    -0.21200
C2974       C  0.64034947  0.01150898  0.41380153    -0.09300
C2975       C  0.61325104  0.98385833  0.41638996     0.29600
C2976       C  0.59694089  0.98288531  0.42839534    -0.21200
C2977       C  0.60703504  0.00968439  0.43765040    -0.09300
C2978       C  0.63234884  0.03827646  0.43438384     0.29600
F2979       F  0.64210828  0.06457259  0.44324993    -0.19800
H2980       H  0.66967986  0.06067490  0.42082736     0.18000
H2981       H  0.57828357  0.47120639  0.42827615     0.18000
F2982       F  0.60348975  0.95715568  0.40778564    -0.19800
C2983       C  0.60970205  0.24582254  0.44118534    -0.21200
C2984       C  0.58754753  0.25506764  0.44291924    -0.09300
C2985       C  0.59560336  0.28784188  0.44323180     0.29600
C2986       C  0.62470937  0.31065387  0.44049488    -0.21200
C2987       C  0.64638761  0.30127222  0.43742525    -0.09300
C2988       C  0.63901264  0.26876483  0.43852455     0.29600
F2989       F  0.65936031  0.25879853  0.43581348    -0.19800
H2990       H  0.60393883  0.22062222  0.44096077     0.18000
H2991       H  0.62996662  0.33565751  0.44005113     0.18000
F2992       F  0.57500139  0.29763705  0.44556912    -0.19800
C2993       C  0.96240537  0.19754776  0.41867688    -0.21200
C2994       C  0.99330437  0.20992176  0.41855348    -0.09300
C2995       C  0.00808141  0.21998299  0.40555288     0.29600
C2996       C  0.99238839  0.21724955  0.39307414    -0.21200
C2997       C  0.96144878  0.20399592  0.39300483    -0.09300
C2998       C  0.94654596  0.19463249  0.40607210     0.29600
F2999       F  0.91668960  0.18210545  0.40671073    -0.19800
H3000       H  0.95048217  0.18977407  0.42852213     0.18000
H3001       H  0.00466140  0.22464258  0.38330429     0.18000
F3002       F  0.53334372  0.21339724  0.40287140    -0.19800
C3003       C  0.51344507  0.12521089  0.47941181    -0.21200
C3004       C  0.50741609  0.09681574  0.47170235    -0.09300
C3005       C  0.49890419  0.09375369  0.45729063     0.29600
C3006       C  0.00160591  0.12232552  0.45050357    -0.21200
C3007       C  0.50825090  0.14918681  0.45787110    -0.09300
C3008       C  0.51399629  0.15124838  0.47256240     0.29600
F3009       F  0.52199202  0.17913877  0.48008625    -0.19800
H3010       H  0.51993363  0.12821207  0.49053281     0.18000
H3011       H  0.99736549  0.12088087  0.43916248     0.18000
F3012       F  0.99439396  0.06888694  0.44907160    -0.19800
C3013       C  0.80740101  0.37037638  0.42619663    -0.21200
C3014       C  0.80711016  0.34099665  0.42824378    -0.09300
C3015       C  0.77975677  0.31315625  0.42981515     0.29600
C3016       C  0.75326901  0.31481829  0.42938278    -0.21200
C3017       C  0.75343334  0.34405268  0.42696254    -0.09300
C3018       C  0.78090116  0.37192762  0.42536401     0.29600
F3019       F  0.78228237  0.40074846  0.42296427    -0.19800
H3020       H  0.82818280  0.39199433  0.42473829     0.18000
H3021       H  0.73252837  0.29297629  0.43050964     0.18000
F3022       F  0.77864259  0.28425896  0.43163752    -0.19800
C3023       C  0.86181612  0.27809633  0.37979762    -0.21200
C3024       C  0.87398072  0.25792460  0.38290548    -0.09300
C3025       C  0.88229161  0.25669816  0.39704592     0.29600
C3026       C  0.87904653  0.27592590  0.40772773    -0.21200
C3027       C  0.86684886  0.29605234  0.40457959    -0.09300
C3028       C  0.85790419  0.29666713  0.39051564     0.29600
F3029       F  0.84606610  0.31584470  0.38703517    -0.19800
H3030       H  0.85508070  0.27931428  0.36902498     0.18000
H3031       H  0.88590895  0.27497416  0.41850651     0.18000
F3032       F  0.89427246  0.23764130  0.40050077    -0.19800
C3033       C  0.90998307  0.38302197  0.45830542    -0.21200
C3034       C  0.91303635  0.37991324  0.44360196    -0.09300
C3035       C  0.94117322  0.39785117  0.43757506     0.29600
C3036       C  0.96536719  0.41910495  0.44606552    -0.21200
C3037       C  0.96213351  0.42253053  0.46072272    -0.09300
C3038       C  0.93424479  0.40388410  0.46681839     0.29600
F3039       F  0.93014800  0.40659658  0.48094516    -0.19800
H3040       H  0.88869530  0.36921840  0.46322244     0.18000
H3041       H  0.98669125  0.43290443  0.44117511     0.18000
F3042       F  0.94513943  0.39571661  0.42340418    -0.19800
C3043       C  0.97364937  0.13451458  0.59789937    -0.21200
C3044       C  0.94850020  0.10456237  0.59918352    -0.09300
C3045       C  0.92048737  0.10124776  0.59573304     0.29600
C3046       C  0.91810709  0.12711679  0.59026748    -0.21200
C3047       C  0.94359996  0.15637563  0.58790647    -0.09300
C3048       C  0.97138351  0.16016794  0.59228663     0.29600
F3049       F  0.99666509  0.18819275  0.59060899    -0.19800
H3050       H  0.49325143  0.13516264  0.59455006     0.18000
H3051       H  0.89649145  0.12352355  0.58701586     0.18000
F3052       F  0.89574129  0.07233375  0.59642223    -0.19800
C3053       C  0.88840673  0.46142079  0.60992795    -0.21200
C3054       C  0.90888108  0.49000991  0.61689756    -0.12300
C3055       C  0.90721627  0.49376750  0.63164455     0.29600
C3056       C  0.88425315  0.46988222  0.63920221    -0.21200
C3057       C  0.86248138  0.44206271  0.63211734    -0.09300
C3058       C  0.86519547  0.43767281  0.61742130     0.29600
F3059       F  0.84492409  0.41096417  0.61020520    -0.19800
H3060       H  0.89121201  0.96861146  0.60168910     0.18000
H3061       H  0.88263862  0.47397588  0.65047516     0.18000
F3062       F  0.92736157  0.52092832  0.63863269    -0.19800
C3063       C  0.51832118  0.05406341  0.58055181    -0.21200
C3064       C  0.98868240  0.03363364  0.58284574    -0.09300
C3065       C  0.97312581  0.01148284  0.57174482     0.29600
C3066       C  0.98802097  0.00996282  0.55958083    -0.21200
C3067       C  0.51877105  0.02814715  0.55805479    -0.09300
C3068       C  0.53368024  0.05192358  0.56866422     0.29600
F3069       F  0.56214458  0.07481132  0.56686661    -0.19800
H3070       H  0.52937855  0.07402030  0.58811993     0.18000
H3071       H  0.97547152  0.99410372  0.55075036     0.18000
F3072       F  0.94322777  0.99334798  0.57215580    -0.19800
C3073       C  0.50206950  0.28954916  0.55804895    -0.21200
C3074       C  0.49566161  0.25719655  0.55794273    -0.09300
C3075       C  0.51826541  0.24940032  0.55446236     0.29600
C3076       C  0.54711682  0.27359448  0.55242606    -0.21200
C3077       C  0.55393291  0.30591742  0.55357502    -0.09300
C3078       C  0.53106886  0.31382712  0.55587989     0.29600
F3079       F  0.53726042  0.34504751  0.55722172    -0.19800
H3080       H  0.48513149  0.29617264  0.56072197     0.18000
H3081       H  0.56447492  0.26714832  0.55056396     0.18000
F3082       F  0.01027914  0.21128375  0.55615554    -0.19800
C3083       C  0.63431325  0.35484335  0.59466622    -0.21200
C3084       C  0.64759376  0.35724634  0.58143353    -0.09300
C3085       C  0.67598119  0.35993893  0.58082881     0.29600
C3086       C  0.69070485  0.35988759  0.59335759    -0.21200
C3087       C  0.67731593  0.35716813  0.60668670    -0.09300
C3088       C  0.64890127  0.35489297  0.60716315     0.29600
F3089       F  0.63515542  0.35310219  0.61968755    -0.19800
H3090       H  0.61252662  0.35308376  0.59531877     0.18000
H3091       H  0.71244605  0.36160065  0.59259702     0.18000
F3092       F  0.68900984  0.36162044  0.56810247    -0.19800
C3093       C  0.63432998  0.43781011  0.51781509    -0.21200
C3094       C  0.63658186  0.46494596  0.52543248    -0.09300
C3095       C  0.64059020  0.46676915  0.54030856     0.29600
C3096       C  0.63942008  0.44073818  0.54742791    -0.21200
C3097       C  0.63405459  0.41244089  0.53990978    -0.09300
C3098       C  0.63279885  0.41161494  0.52499042     0.29600
F3099       F  0.62828302  0.38476330  0.51743109    -0.19800
H3100       H  0.63118919  0.43561903  0.50637812     0.18000
H3101       H  0.64038054  0.44177122  0.55894259     0.18000
F3102       F  0.64342011  0.49266525  0.54811304    -0.19800
C3103       C  0.85625024  0.23228347  0.56697798    -0.21200
C3104       C  0.82999115  0.20315512  0.56827610    -0.09300
C3105       C  0.83152925  0.17435343  0.56870655     0.29600
C3106       C  0.85900821  0.17500244  0.56872429    -0.21200
C3107       C  0.88541660  0.20424409  0.56800745    -0.09300
C3108       C  0.88375386  0.23287627  0.56665261     0.29600
F3109       F  0.90866125  0.26158730  0.56578854    -0.19800
H3110       H  0.85544290  0.25469662  0.56649632     0.18000
H3111       H  0.85965178  0.15256534  0.56958250     0.18000
F3112       F  0.80660071  0.14576862  0.56990448    -0.19800
C3113       C  0.77250628  0.23819028  0.60882909    -0.21200
C3114       C  0.76976755  0.24388865  0.59452942    -0.09300
C3115       C  0.76506747  0.26974313  0.59104990     0.29600
C3116       C  0.76270394  0.28941309  0.60178649    -0.21200
C3117       C  0.76459517  0.28333046  0.61618820    -0.09300
C3118       C  0.76973479  0.25749607  0.61960223     0.29600
F3119       F  0.77216797  0.25082550  0.63332480    -0.19800
H3120       H  0.77634049  0.21841842  0.61164205     0.18000
H3121       H  0.75875817  0.30900456  0.59881308     0.18000
F3122       F  0.76302250  0.27606356  0.57724090    -0.19800
C3123       C  0.69617254  0.14283492  0.56050774    -0.21200
C3124       C  0.72353991  0.16323368  0.55443115    -0.09300
C3125       C  0.72589920  0.16353734  0.53954723     0.29600
C3126       C  0.70157214  0.14317432  0.53096169    -0.21200
C3127       C  0.67443423  0.12194812  0.53701926    -0.09300
C3128       C  0.67184423  0.12226207  0.55192455     0.29600
F3129       F  0.64572922  0.10309104  0.55820656    -0.19800
H3130       H  0.69378741  0.14242682  0.57194882     0.18000
H3131       H  0.70412938  0.14369238  0.51953102     0.18000
F3132       F  0.75163093  0.18391677  0.53328951    -0.19800
C3133       C  0.50782741  0.09625926  0.74119637    -0.21200
C3134       C  0.53539527  0.09742540  0.74346237    -0.09300
C3135       C  0.56136440  0.12549933  0.74009054     0.29600
C3136       C  0.55970619  0.15238029  0.73549308    -0.21200
C3137       C  0.53224045  0.15180111  0.73405414    -0.09300
C3138       C  0.50619291  0.12305824  0.73647909     0.29600
F3139       F  0.47915953  0.12110470  0.73462907    -0.19800
H3140       H  0.48740722  0.07477108  0.74337763     0.18000
H3141       H  0.58011328  0.17428256  0.73383513     0.18000
F3142       F  0.58850404  0.12782357  0.74199459    -0.19800
C3143       C  0.57600513  0.25353017  0.69876341    -0.21200
C3144       C  0.57593368  0.26023603  0.71336704    -0.09300
C3145       C  0.59924644  0.28833403  0.71943599     0.29600
C3146       C  0.62319398  0.30823253  0.71113768    -0.21200
C3147       C  0.62414127  0.30063505  0.69664992    -0.09300
C3148       C  0.59968631  0.27370595  0.69038831     0.29600
F3149       F  0.59940490  0.26560265  0.67641526    -0.19800
H3150       H  0.55809534  0.23197132  0.69394814     0.18000
H3151       H  0.64155005  0.32901082  0.71618749     0.18000
F3152       F  0.59989548  0.29534856  0.73356289    -0.19800
C3153       C  0.51727864  0.24602155  0.76414553    -0.21200
C3154       C  0.50105427  0.22928529  0.75194604    -0.09300
C3155       C  0.97710706  0.22332267  0.75393301     0.29600
C3156       C  0.96155637  0.22297895  0.76612903    -0.21200
C3157       C  0.97660759  0.23676751  0.77909525    -0.09300
C3158       C  0.00779391  0.25411861  0.77912477     0.29600
F3159       F  0.02337248  0.26856990  0.79122371    -0.19800
H3160       H  0.54124797  0.25760383  0.76412999     0.18000
H3161       H  0.93763559  0.20968002  0.76560453     0.18000
F3162       F  0.96190665  0.20659502  0.74207310    -0.19800
C3163       C  0.64376261  0.06431977  0.75477094    -0.21200
C3164       C  0.64239012  0.03396354  0.75453676    -0.09300
C3165       C  0.61462796  0.00628216  0.75487185     0.29600
C3166       C  0.58876002  0.00912131  0.75547188    -0.21200
C3167       C  0.59019072  0.03953095  0.75560567    -0.09300
C3168       C  0.61799932  0.06717108  0.75532070     0.29600
F3169       F  0.62041325  0.09701257  0.75602304    -0.19800
H3170       H  0.66493355  0.08596869  0.75456069     0.18000
H3171       H  0.56757593  0.98750945  0.75573639     0.18000
F3172       F  0.61255261  0.97661517  0.75506344    -0.19800
C3173       C  0.77160786  0.09475652  0.76834220    -0.21200
C3174       C  0.74402094  0.07314276  0.77373462    -0.09300
C3175       C  0.73911118  0.07358190  0.78840128     0.29600
C3176       C  0.76183517  0.09466188  0.79755213    -0.21200
C3177       C  0.78988555  0.11578361  0.79227609    -0.09300
C3178       C  0.79431379  0.11613204  0.77745777     0.29600
F3179       F  0.82071425  0.13632093  0.77171922    -0.19800
H3180       H  0.77551665  0.09515037  0.75701664     0.18000
H3181       H  0.75760191  0.09382842  0.80884932     0.18000
F3182       F  0.71263885  0.05283384  0.79394420    -0.19800
C3183       C  0.70145160  0.48778200  0.71880651    -0.21200
C3184       C  0.71014187  0.48859926  0.73301791    -0.09300
C3185       C  0.72307877  0.46947118  0.73684803     0.29600
C3186       C  0.72755013  0.45032214  0.72653299    -0.21200
C3187       C  0.71939147  0.45012844  0.71226741    -0.09300
C3188       C  0.70579729  0.46866582  0.70855217     0.29600
F3189       F  0.69614727  0.46788450  0.69504503    -0.19800
H3190       H  0.68938577  0.00576721  0.71641688     0.18000
H3191       H  0.73785950  0.43606313  0.72964931     0.18000
F3192       F  0.73083287  0.46877351  0.75056485    -0.19800
C3193       C  0.96093123  0.44118323  0.77136779    -0.21200
C3194       C  0.93557938  0.44478660  0.77324210    -0.09300
C3195       C  0.93810104  0.47564545  0.77340179     0.29600
C3196       C  0.95895752  0.00418526  0.77485276    -0.21200
C3197       C  0.98247279  0.99754419  0.77204207    -0.09300
C3198       C  0.98797247  0.46763843  0.76840658     0.29600
F3199       F  0.01140990  0.46258967  0.76563125    -0.19800
H3200       H  0.95936656  0.41752168  0.77113509     0.18000
H3201       H  0.96186835  0.02826668  0.77390222     0.18000
F3202       F  0.91404808  0.47986469  0.77561746    -0.19800
C3203       C  0.87475393  0.33520421  0.80090837    -0.21200
C3204       C  0.87017829  0.33196014  0.78613229    -0.09300
C3205       C  0.86600277  0.30351605  0.77907616     0.29600
C3206       C  0.86748409  0.27930671  0.78668745    -0.21200
C3207       C  0.87353653  0.28318017  0.80143071    -0.09300
C3208       C  0.87654944  0.31130389  0.80850527     0.29600
F3209       F  0.88261872  0.31665087  0.82266218    -0.19800
H3210       H  0.87817004  0.35703932  0.80652161     0.18000
H3211       H  0.86504185  0.25805472  0.78090136     0.18000
F3212       F  0.86270981  0.30012140  0.76471620    -0.19800
C3213       C  0.84107499  0.38976680  0.72117492    -0.21200
C3214       C  0.81143156  0.38341689  0.72190689    -0.09300
C3215       C  0.79744444  0.37650628  0.73525894     0.29600
C3216       C  0.81291193  0.37592057  0.74744709    -0.21200
C3217       C  0.84252422  0.38259728  0.74655033    -0.09300
C3218       C  0.85646506  0.38955131  0.73330931     0.29600
F3219       F  0.88518520  0.39625765  0.73212935    -0.19800
H3220       H  0.85255612  0.39489306  0.71115019     0.18000
H3221       H  0.80204895  0.37108852  0.75763591     0.18000
F3222       F  0.76910031  0.37089748  0.73664551    -0.19800
C3223       C  0.53883496  0.26072986  0.86903214    -0.21200
C3224       C  0.00774569  0.25005803  0.87449558    -0.09300
C3225       C  0.50135972  0.25185690  0.88657954     0.29600
C3226       C  0.52334400  0.26976123  0.89662208    -0.21200
C3227       C  0.55331272  0.28386433  0.89302942    -0.09300
C3228       C  0.56096220  0.27915899  0.87910368     0.29600
F3229       F  0.58966951  0.29329737  0.87506324    -0.19800
H3230       H  0.04252368  0.26806849  0.85886010     0.18000
H3231       H  0.51681511  0.27277347  0.90726870     0.18000
F3232       F  0.47273917  0.24051075  0.89041680    -0.19800
C3233       C  0.57888064  0.38656031  0.92893452    -0.21200
C3234       C  0.58597796  0.36332013  0.93389586    -0.09300
C3235       C  0.58724780  0.35969198  0.94857901     0.29600
C3236       C  0.58199171  0.37932833  0.95811922    -0.21200
C3237       C  0.57488102  0.40270284  0.95326691    -0.09300
C3238       C  0.57328833  0.40612393  0.93852069     0.29600
F3239       F  0.56556291  0.42762224  0.93335011    -0.19800
H3240       H  0.57767952  0.38953089  0.91762459     0.18000
H3241       H  0.58330153  0.37596706  0.96938246     0.18000
F3242       F  0.59262566  0.33640867  0.95371372    -0.19800
C3243       C  0.70392005  0.34372443  0.91878364    -0.21200
C3244       C  0.70375556  0.31397585  0.91852073    -0.09300
C3245       C  0.67637692  0.28549464  0.91832768     0.29600
C3246       C  0.64990713  0.28708476  0.91785021    -0.21200
C3247       C  0.65030167  0.31692778  0.91773444    -0.09300
C3248       C  0.67756070  0.34527303  0.91842779     0.29600
F3249       F  0.67882053  0.37455660  0.91815554    -0.19800
H3250       H  0.72457691  0.36601188  0.91908964     0.18000
H3251       H  0.62906108  0.26499212  0.91747167     0.18000
F3252       F  0.67501870  0.25614458  0.91810165    -0.19800
C3253       C  0.78933515  0.25744068  0.92612653    -0.21200
C3254       C  0.76194862  0.25739366  0.92529284    -0.09300
C3255       C  0.73595527  0.22889952  0.92832149     0.29600
C3256       C  0.73730533  0.20111003  0.93151628    -0.21200
C3257       C  0.76441660  0.20080550  0.93186392    -0.09300
C3258       C  0.79063331  0.22947368  0.92944236     0.29600
F3259       F  0.81742886  0.23038133  0.93017172    -0.19800
H3260       H  0.80977434  0.27901753  0.92408146     0.18000
H3261       H  0.71677389  0.17928940  0.93309775     0.18000
F3262       F  0.70886965  0.22720215  0.92775008    -0.19800
C3263       C  0.83790683  0.13724617  0.89919351    -0.21200
C3264       C  0.82284251  0.12385946  0.88619519    -0.09300
C3265       C  0.79158739  0.10725932  0.88612252     0.29600
C3266       C  0.77613375  0.10631224  0.89853954    -0.21200
C3267       C  0.79153011  0.12195935  0.91110347    -0.09300
C3268       C  0.82246790  0.13662519  0.91145982     0.29600
F3269       F  0.83778831  0.15263628  0.92341320    -0.19800
H3270       H  0.86183331  0.15023981  0.89974468     0.18000
H3271       H  0.75220755  0.09542303  0.89808641     0.18000
F3272       F  0.77591289  0.09356794  0.87395628    -0.19800
C3273       C  0.69956567  0.06041874  0.94593162    -0.21200
C3274       C  0.72002559  0.09079139  0.95162006    -0.09300
C3275       C  0.71754057  0.09841427  0.96596887     0.29600
C3276       C  0.69387581  0.07706232  0.97405436    -0.21200
C3277       C  0.67225500  0.04776930  0.96802655    -0.09300
C3278       C  0.67587705  0.03905471  0.95403646     0.29600
F3279       F  0.65606584  0.01028622  0.94806987    -0.19800
H3280       H  0.70099504  0.05382430  0.93495758     0.18000
H3281       H  0.69159671  0.08426299  0.98481709     0.18000
F3282       F  0.73754846  0.12687655  0.97209442    -0.19800
C3283       C  0.83604550  0.42503310  0.90255237    -0.21200
C3284       C  0.86090490  0.42220013  0.89833558    -0.09300
C3285       C  0.85949523  0.39180462  0.89810060     0.29600
C3286       C  0.83405405  0.36497932  0.90260391    -0.21200
C3287       C  0.80948224  0.36789925  0.90736148    -0.09300
C3288       C  0.81055179  0.39825189  0.90705488     0.29600
F3289       F  0.78765290  0.40257626  0.91175008    -0.19800
H3290       H  0.83695613  0.44838714  0.90311075     0.18000
H3291       H  0.83374888  0.34193747  0.90250363     0.18000
F3292       F  0.88306842  0.38826272  0.89385885    -0.19800
C3293       C  0.91868080  0.02238905  0.86332822    -0.21200
C3294       C  0.92600948  0.02592975  0.87785440    -0.09300
C3295       C  0.93389301  0.05568316  0.88486405     0.29600
C3296       C  0.93322283  0.08074204  0.87752427    -0.21200
C3297       C  0.92464771  0.07670322  0.86308466    -0.09300
C3298       C  0.91793038  0.04723598  0.85600599     0.29600
F3299       F  0.90937778  0.04163450  0.84211473    -0.19800
H3300       H  0.91275912  0.99984951  0.85766221     0.18000
H3301       H  0.93863714  0.10303816  0.88328157     0.18000
F3302       F  0.94052667  0.06000400  0.89898106    -0.19800
C3303       C  0.98147421  0.48452722  0.91775029    -0.21200
C3304       C  0.95847392  0.49237255  0.91901470    -0.09300
C3305       C  0.95138480  0.50017982  0.93242960     0.29600
C3306       C  0.96619370  0.49865932  0.94454534    -0.21200
C3307       C  0.98872456  0.48990492  0.94345131    -0.09300
C3308       C  0.99690612  0.48378082  0.92986968     0.29600
F3309       F  0.01873589  0.47553735  0.92835415    -0.19800
H3310       H  0.98672775  0.47789224  0.90745291     0.18000
H3311       H  0.94708619  0.96399994  0.95155333     0.18000
F3312       F  0.91470142  0.96311387  0.93070066    -0.19800
C3313       C  0.78070095  0.12995316  0.10216512    -0.21200
C3314       C  0.80263633  0.12059557  0.09987503    -0.09300
C3315       C  0.79650005  0.08929288  0.10323721     0.29600
C3316       C  0.76808414  0.06708451  0.10748520    -0.21200
C3317       C  0.74548866  0.07579637  0.10859507    -0.09300
C3318       C  0.75246190  0.10789560  0.10651231     0.29600
F3319       F  0.73154261  0.11754229  0.10796505    -0.19800
H3320       H  0.78502907  0.15416629  0.10003490     0.18000
H3321       H  0.76324519  0.04244710  0.10891648     0.18000
F3322       F  0.81710055  0.07934239  0.10137791    -0.19800
C3323       C  0.67129131  0.46064953  0.13982225    -0.21200
C3324       C  0.66873017  0.45967304  0.12495349    -0.09300
C3325       C  0.66397169  0.43165671  0.11726955     0.29600
C3326       C  0.66444028  0.40632424  0.12426160    -0.21200
C3327       C  0.66949932  0.40835744  0.13900735    -0.09300
C3328       C  0.67149554  0.43515385  0.14685508     0.29600
F3329       F  0.67625077  0.43811617  0.16113556    -0.19800
H3330       H  0.67482012  0.48198698  0.14590922     0.18000
H3331       H  0.66252652  0.38584298  0.11799694     0.18000
F3332       F  0.66171745  0.42992646  0.10286586    -0.19800
C3333       C  0.66819149  0.52261283  0.07098349    -0.21200
C3334       C  0.65197291  0.51280823  0.08356715    -0.09300
C3335       C  0.61956878  0.01119379  0.08420740     0.29600
C3336       C  0.60432123  0.00641774  0.07127740    -0.21200
C3337       C  0.62305696  0.50684235  0.05723173    -0.09300
C3338       C  0.65406866  0.51979550  0.05797945     0.29600
F3339       F  0.67096692  0.52974557  0.04620053    -0.19800
H3340       H  0.69198357  0.53205617  0.07115576     0.18000
H3341       H  0.58147204  0.00151875  0.07146868     0.18000
F3342       F  0.60552010  0.00957470  0.09661931    -0.19800
C3343       C  0.82469372  0.23420094  0.05852442    -0.21200
C3344       C  0.84889390  0.26514156  0.05963191    -0.09300
C3345       C  0.87646428  0.26914608  0.06437972     0.29600
C3346       C  0.87883396  0.24284620  0.06928435    -0.21200
C3347       C  0.85379288  0.21238500  0.06952628    -0.09300
C3348       C  0.82705535  0.20795212  0.06338765     0.29600
F3349       F  0.80275965  0.17852951  0.06272776    -0.19800
H3350       H  0.80342164  0.23071991  0.05473565     0.18000
H3351       H  0.89967705  0.24681248  0.07388084     0.18000
F3352       F  0.90030844  0.29886652  0.06563167    -0.19800
C3353       C  0.80777671  0.34122143  0.10721809    -0.21200
C3354       C  0.77671317  0.32625193  0.10711035    -0.09300
C3355       C  0.76103716  0.31376422  0.09422287     0.29600
C3356       C  0.77635833  0.31469289  0.08179165    -0.21200
C3357       C  0.80732323  0.32878416  0.08210072    -0.09300
C3358       C  0.82301706  0.34264382  0.09480337     0.29600
F3359       F  0.85298333  0.35583327  0.09534235    -0.19800
H3360       H  0.82025540  0.35133736  0.11701816     0.18000
H3361       H  0.76410709  0.30352741  0.07204548     0.18000
F3362       F  0.73101409  0.29901575  0.09382868    -0.19800
C3363       C  0.93219226  0.42452771  0.04659891    -0.21200
C3364       C  0.93426330  0.42314038  0.03172240    -0.09300
C3365       C  0.91010308  0.39941233  0.02373931     0.29600
C3366       C  0.88535676  0.37655016  0.03059324    -0.21200
C3367       C  0.88415902  0.37695646  0.04541650    -0.09300
C3368       C  0.90722024  0.40161405  0.05342508     0.29600
F3369       F  0.90658436  0.40197813  0.06785198    -0.19800
H3370       H  0.95035742  0.44255216  0.05298148     0.18000
H3371       H  0.86774910  0.35738581  0.02436255     0.18000
F3372       F  0.91114801  0.39660027  0.00938268    -0.19800
C3373       C  0.90851234  0.13099757  0.09119588    -0.21200
C3374       C  0.90877376  0.16040317  0.08899638    -0.09300
C3375       C  0.93620467  0.18842139  0.08792102     0.29600
C3376       C  0.96261634  0.18686275  0.08865116    -0.21200
C3377       C  0.96239759  0.15743207  0.09034329    -0.09300
C3378       C  0.93507694  0.12940323  0.09173338     0.29600
F3379       F  0.93408839  0.10056733  0.09359596    -0.19800
H3380       H  0.88772152  0.10910818  0.09210675     0.18000
H3381       H  0.98336709  0.20868077  0.08747660     0.18000
F3382       F  0.93762289  0.21750052  0.08623273    -0.19800
C3383       C  0.56795000  0.19750189  0.12094984    -0.21200
C3384       C  0.57037854  0.20009382  0.10618023    -0.09300
C3385       C  0.59692717  0.22330652  0.10034136     0.29600
C3386       C  0.62073208  0.24363447  0.10926353    -0.21200
C3387       C  0.61865921  0.24037025  0.12408050    -0.09300
C3388       C  0.59187899  0.21710903  0.12984317     0.29600
F3389       F  0.58867558  0.21330020  0.14409344    -0.19800
H3390       H  0.54766018  0.17960826  0.12558430     0.18000
H3391       H  0.64104995  0.26130698  0.10457407     0.18000
F3392       F  0.59979776  0.22622874  0.08604300    -0.19800
C3393       C  0.51414253  0.05823480  0.05856132    -0.21200
C3394       C  0.53714292  0.07159002  0.04870942    -0.09300
C3395       C  0.55708301  0.10472595  0.04975332     0.29600
C3396       C  0.55322372  0.12420806  0.06002291    -0.21200
C3397       C  0.52956306  0.11112006  0.06949831    -0.09300
C3398       C  0.51037312  0.07779416  0.06890382     0.29600
F3399       F  0.99102855  0.06887457  0.07708941    -0.19800
H3400       H  0.49876818  0.03272297  0.05809924     0.18000
H3401       H  0.56848546  0.14975769  0.06040115     0.18000
F3402       F  0.58056968  0.11828187  0.04096554    -0.19800
C3403       C  0.54843565  0.68334970  0.09622412     0.03200
C3404       C  0.55242161  0.66250515  0.08668988    -0.12900
C3405       C  0.52822307  0.63840102  0.07902417     0.00700
C3406       C  0.49994835  0.63547130  0.08086163    -0.11500
C3407       C  0.49592516  0.65675023  0.09010434     0.03200
C3408       C  0.52018169  0.68052790  0.09780105    -0.10900
H3409       H  0.57421316  0.66446266  0.08552251     0.08800
H3410       H  0.97593948  0.62318315  0.07565317     0.06300
H3411       H  0.51706231  0.69690966  0.10501408     0.06200
C3412       C  0.86143666  0.84241601  0.05119997     0.03200
C3413       C  0.84224327  0.84782190  0.06016881    -0.12900
C3414       C  0.82194131  0.82297266  0.06850900     0.00700
C3415       C  0.82120510  0.79305733  0.06791914    -0.11500
C3416       C  0.84117773  0.78787924  0.05955898     0.03200
C3417       C  0.86049751  0.81226739  0.05079043    -0.10900
H3418       H  0.84386352  0.87148931  0.06105328     0.08800
H3419       H  0.80709710  0.77482874  0.07519458     0.06300
H3420       H  0.87624550  0.80857721  0.04439337     0.06200
C3421       C  0.66611521  0.02215201  0.09746286     0.03200
C3422       C  0.69482899  0.54270547  0.10019233    -0.12900
C3423       C  0.71299653  0.54344828  0.11146379     0.00700
C3424       C  0.70315877  0.51687201  0.12016556    -0.11500
C3425       C  0.67822572  0.99673657  0.11651988     0.03200
C3426       C  0.65814195  0.99603899  0.10626130    -0.10900
H3427       H  0.70279473  0.56273312  0.09312794     0.08800
H3428       H  0.71766651  0.51678498  0.12850301     0.06300
H3429       H  0.63741367  0.97423612  0.10434364     0.06200
C3430       C  0.87994762  0.66163428  0.09322310     0.80300
N3431       N  0.87802915  0.68377811  0.08500714    -0.78000
C3432       C  0.85200196  0.68419301  0.08337226     0.82700
N3433       N  0.82794056  0.66266451  0.09028260    -0.78000
C3434       C  0.82922594  0.64042704  0.09858691     0.82800
N3435       N  0.85529693  0.63963677  0.09991549    -0.79700
C3436       C  0.91788663  0.50666984  0.88892480     0.03200
C3437       C  0.89659902  0.96794719  0.88370095    -0.12900
C3438       C  0.89200834  0.94105959  0.89141546     0.00700
C3439       C  0.91397952  0.94362826  0.90087745    -0.11500
C3440       C  0.93935847  0.97304404  0.90347930     0.03200
C3441       C  0.94071508  0.51168358  0.89857005    -0.10900
H3442       H  0.87916098  0.96624818  0.87668343     0.08800
H3443       H  0.90997503  0.92346481  0.90740623     0.06300
H3444       H  0.95996272  0.53518421  0.89979308     0.06200
C3445       C  0.74225040  0.61225918  0.93953649     0.03200
C3446       C  0.75730540  0.60300953  0.92957483    -0.12900
C3447       C  0.77477102  0.62460534  0.91941359     0.00700
C3448       C  0.77671201  0.65502315  0.91894761    -0.11500
C3449       C  0.76158356  0.66449777  0.92871461     0.03200
C3450       C  0.74460734  0.64304993  0.93915389    -0.10900
H3451       H  0.75496961  0.57901048  0.92956283     0.08800
H3452       H  0.78900719  0.67071005  0.91045724     0.06300
H3453       H  0.73218810  0.64971439  0.94659276     0.06200
C3454       C  0.73146164  0.80972569  0.91214718     0.80300
N3455       N  0.73236581  0.78304327  0.91639489    -0.78000
C3456       C  0.75783076  0.78101617  0.91561561     0.82700
N3457       N  0.78246999  0.80600625  0.91041328    -0.78000
C3458       C  0.78189774  0.83284761  0.90612168     0.82800
N3459       N  0.75633706  0.83449996  0.90708174    -0.79700
C3460       C  0.59332526  0.84206177  0.92208690     0.03200
C3461       C  0.57078958  0.82283053  0.91228894    -0.12900
C3462       C  0.57476979  0.80231993  0.90251311     0.00700
C3463       C  0.60134861  0.80092421  0.90256378    -0.11500
C3464       C  0.62402558  0.82000164  0.91226653     0.03200
C3465       C  0.62006370  0.84074698  0.92192926    -0.10900
H3466       H  0.54999324  0.82351677  0.91236968     0.08800
H3467       H  0.60430345  0.78481552  0.89510839     0.06300
H3468       H  0.63757711  0.85542148  0.92947794     0.06200
Zr3469     Zr  0.53541316  0.97845236  0.02691634     2.17500
O3470       O  0.51922593  0.94068900  0.04621084    -0.51300
O3471       O  0.53781075  0.52947175  0.03927253    -0.74500
O3472       O  0.57432233  0.99256737  0.04476571    -0.81200
O3473       O  0.96187464  0.93918560  0.00893933    -0.83000
O3474       O  0.62308582  0.51238958  0.03220966    -0.78600
O3475       O  0.98687252  0.95251530  0.03003425    -0.90200
O3476       O  0.55592995  0.57201397  0.02483513    -0.76200
O3477       O  0.58279876  0.53130257  0.01846696    -0.85700
O3478       O  0.51655389  0.00125773  0.01011921    -0.85400
O3479       O  0.56767291  0.95961886  0.01687721    -0.72100
O3480       O  0.51205633  0.93807761  0.00848914    -0.84300
Zr3481     Zr  0.56780140  0.98917303  0.97298060     2.26400
Zr3482     Zr  0.61285547  0.51158169  0.00704728     2.06300
Zr3483     Zr  0.99687865  0.96658762  0.99052483     2.10000
Zr3484     Zr  0.56462428  0.55461982  0.00183996     1.78800
O3485       O  0.95605447  0.91627632  0.98148167    -0.93100
O3486       O  0.61187974  0.60063096  0.00866009    -0.40900
O3487       O  0.53938727  0.51548269  0.98320325    -0.77500
O3488       O  0.59529086  0.53604903  0.99020687    -0.96200
O3489       O  0.58627828  0.96604724  0.98957845    -0.89500
O3490       O  0.52566955  0.94235428  0.98090565    -0.92400
C3491       C  0.54547691  0.55880434  0.03666323     1.01400
C3492       C  0.96312426  0.93726144  0.02245132     1.14300
C3493       C  0.60241317  0.00289189  0.04455499     1.05100
O3494       O  0.65347256  0.56396351  0.01419955    -0.94500
O3495       O  0.64854845  0.53045521  0.98800329    -0.90300
O3496       O  0.62168229  0.52101647  0.96761816    -0.83400
C3497       C  0.64627357  0.53171814  0.97448687     1.11700
O3498       O  0.52372317  0.87956033  0.01605602    -0.96500
Zr3499     Zr  0.54425199  0.92017175  0.99806041     1.88900
O3500       O  0.57089652  0.94491463  0.96063429    -0.73100
O3501       O  0.63427996  0.97414687  0.00942088    -0.52400
O3502       O  0.57874118  0.90189483  0.00590465    -0.97100
O3503       O  0.50043818  0.87115673  0.99010181    -0.54300
O3504       O  0.56117715  0.90575305  0.97636137    -0.73700
C3505       C  0.56883987  0.91784628  0.96406383     0.98700
O3506       O  0.58117694  0.52232878  0.94988778    -0.62500
O3507       O  0.96691480  0.99390347  0.98965936    -0.57300
O3508       O  0.53166211  0.98267390  0.95511069    -0.94000
O3509       O  0.98865973  0.96819963  0.96539632    -0.92400
O3510       O  0.53047318  0.57584213  0.99771948    -0.92700
O3511       O  0.57995638  0.59423880  0.98340757    -0.91500
C3512       C  0.50431624  0.97558668  0.95528436     1.17500
H3513       H  0.50229511  0.00664209  0.01432202     0.33500
H3514       H  0.61152464  0.55449251  0.98615490     0.44300
H3515       H  0.51577847  0.92737498  0.97316812     0.37900
H3516       H  0.57419423  0.95032351  0.02417683     0.34300
H3517       H  0.60734450  0.61860364  0.01017913     0.26100
H3518       H  0.66245631  0.50223866  0.01334338     0.32100
H3519       H  0.59576248  0.91197845  0.99944685     0.38000
H3520       H  0.51527196  0.56656988  0.00514611     0.32400
H3521       H  0.95203433  0.98233737  0.98203225     0.31300
H3522       H  0.94029217  0.92172124  0.97894600     0.33000
H3523       H  0.50390599  0.86776968  0.98000277     0.32000
H3524       H  0.57637360  0.58152466  0.97439535     0.36000
H3525       H  0.59473640  0.54516858  0.95244247     0.28700
H3526       H  0.52440511  0.95390838  0.05513490     0.32900
H3527       H  0.51358755  0.88757203  0.02271617     0.35800
H3528       H  0.95541080  0.98831251  0.99852901     0.28400
H3529       H  0.59342563  0.51470117  0.94457778     0.41300
H3530       H  0.65661004  0.57776279  0.00597936     0.31300
H3531       H  0.61627488  0.59606949  0.01831828     0.38900
H3532       H  0.48441376  0.87713089  0.98983776     0.30800
H3533       H  0.63029789  0.96559379  0.01911216     0.30800
H3534       H  0.53263566  0.93104570  0.04598375     0.31100
C3535       C  0.86271935  0.86356290  0.78119183     0.03200
C3536       C  0.84430853  0.86292092  0.76999175    -0.12900
C3537       C  0.85146865  0.89105980  0.76262201     0.00700
C3538       C  0.87663989  0.91972149  0.76668928    -0.11500
C3539       C  0.89558840  0.92038252  0.77751710     0.03200
C3540       C  0.88806029  0.89245565  0.78498469    -0.10900
H3541       H  0.82548470  0.84041428  0.76657209     0.08800
H3542       H  0.88287141  0.94090282  0.76049062     0.06300
H3543       H  0.90318837  0.89260791  0.79305516     0.06200
C3544       C  0.70497663  0.50911636  0.74362215     0.03200
C3545       C  0.72766389  0.53022703  0.75302282    -0.12900
C3546       C  0.72286222  0.55087614  0.76240579     0.00700
C3547       C  0.69564059  0.55077850  0.76216511    -0.11500
C3548       C  0.67315080  0.53042767  0.75268435     0.03200
C3549       C  0.67765041  0.50922075  0.74363482    -0.10900
H3550       H  0.74908817  0.53100419  0.75289626     0.08800
H3551       H  0.69218183  0.56724101  0.76917788     0.06300
H3552       H  0.66019458  0.49353404  0.73626649     0.06200
C3553       C  0.55440454  0.73958938  0.72407096     0.03200
C3554       C  0.53864336  0.74804562  0.73401805    -0.12900
C3555       C  0.52135433  0.72613542  0.74418257     0.00700
C3556       C  0.52004246  0.69593912  0.74452201    -0.11500
C3557       C  0.53583856  0.68721802  0.73477988     0.03200
C3558       C  0.55274185  0.70907023  0.72446032    -0.10900
H3559       H  0.54001509  0.77160568  0.73393498     0.08800
H3560       H  0.00222274  0.68095434  0.75083627     0.06300
H3561       H  0.56554674  0.70281956  0.71708219     0.06200
C3562       C  0.56786340  0.54432191  0.75400878     0.80300
N3563       N  0.54369745  0.52113136  0.76029125    -0.78000
C3564       C  0.51866515  0.52369274  0.76167918     0.82700
N3565       N  0.51789078  0.54981988  0.75654638    -0.78000
C3566       C  0.54189189  0.57333203  0.75019097     0.82800
N3567       N  0.56688169  0.57043843  0.74899624    -0.79700
Zr3568     Zr  0.88839180  0.69786985  0.80524951     2.17500
O3569       O  0.88760709  0.68837642  0.77959634    -0.51300
O3570       O  0.87598465  0.74078234  0.80069536    -0.74500
O3571       O  0.83961460  0.66089088  0.79559577    -0.81200
O3572       O  0.97300378  0.73722857  0.80310445    -0.83000
O3573       O  0.81024406  0.63448633  0.81389092    -0.78600
O3574       O  0.93101083  0.72247205  0.79016982    -0.90200
O3575       O  0.87931847  0.76710730  0.82162418    -0.76200
O3576       O  0.85955041  0.70043990  0.82446716    -0.85700
O3577       O  0.92189827  0.74095489  0.82046364    -0.85400
O3578       O  0.86917351  0.64594923  0.81571903    -0.72100
O3579       O  0.92578553  0.68399982  0.81221030    -0.84300
Zr3580     Zr  0.91059859  0.67804518  0.85796567     2.26400
Zr3581     Zr  0.84076416  0.64947378  0.83525358     2.06300
Zr3582     Zr  0.95877589  0.72685810  0.82778952     2.10000
Zr3583     Zr  0.89319588  0.74251251  0.84001471     1.78800
O3584       O  0.00093648  0.71763184  0.82347360    -0.93100
O3585       O  0.84842077  0.74388617  0.84765230    -0.40900
O3586       O  0.93069623  0.72965960  0.84749927    -0.77500
O3587       O  0.87320754  0.69194002  0.85122957    -0.96200
O3588       O  0.87751015  0.63536082  0.84254923    -0.89500
O3589       O  0.93990696  0.67605625  0.83880127    -0.92400
C3590       C  0.87405468  0.76278152  0.80824900     1.01400
C3591       C  0.95910099  0.73376857  0.79130548     1.14300
C3592       C  0.81484759  0.64014696  0.80062427     1.05100
O3593       O  0.80269467  0.66460622  0.84092585    -0.94500
O3594       O  0.82620342  0.63087653  0.85912143    -0.90300
O3595       O  0.86807343  0.64563551  0.87220127    -0.83400
C3596       C  0.83983774  0.63229773  0.87076112     1.11700
O3597       O  0.90500046  0.61311155  0.79912434    -0.96500
Zr3598     Zr  0.90673929  0.63336706  0.82341968     1.88900
O3599       O  0.91876075  0.63285685  0.86329217    -0.73100
O3600       O  0.80632961  0.59203776  0.83489330    -0.52400
O3601       O  0.86871016  0.57755756  0.81990661    -0.97100
O3602       O  0.95327194  0.63384995  0.81776102    -0.54300
O3603       O  0.91235163  0.60377795  0.84280892    -0.73700
C3604       C  0.91690003  0.60822766  0.85629019     0.98700
O3605       O  0.91452704  0.70017185  0.88218384    -0.62500
O3606       O  0.98802849  0.78514588  0.82710925    -0.57300
O3607       O  0.96056305  0.71043007  0.86718476    -0.94000
O3608       O  0.98862379  0.74191569  0.84949887    -0.92400
O3609       O  0.93223619  0.79821053  0.84043397    -0.92700
O3610       O  0.89733723  0.76567538  0.86389227    -0.91500
C3611       C  0.98478299  0.73294181  0.86244270     1.17500
H3612       H  0.93075040  0.76102718  0.81557652     0.33500
H3613       H  0.86261752  0.69308305  0.85957314     0.44300
H3614       H  0.95570301  0.67249954  0.84215190     0.37900
H3615       H  0.85701179  0.62879516  0.80909957     0.34300
H3616       H  0.83510779  0.73658871  0.83919123     0.26100
H3617       H  0.78709209  0.58971743  0.83156155     0.32100
H3618       H  0.87915255  0.56474811  0.82112132     0.38000
H3619       H  0.92197210  0.81100624  0.84252272     0.32400
H3620       H  0.48566027  0.79194889  0.83825960     0.31300
H3621       H  0.49505341  0.70396862  0.83095664     0.33000
H3622       H  0.96260034  0.63436701  0.82703174     0.32000
H3623       H  0.91645352  0.76855733  0.86766725     0.36000
H3624       H  0.92665496  0.72371718  0.88136503     0.28700
H3625       H  0.87271098  0.69370956  0.77560614     0.32900
H3626       H  0.91100405  0.59616514  0.79977350     0.35800
H3627       H  0.00754447  0.78903121  0.82353174     0.28400
H3628       H  0.89474263  0.69757096  0.88453480     0.41300
H3629       H  0.78583659  0.64467487  0.84429606     0.31300
H3630       H  0.83887751  0.72610317  0.85432230     0.38900
H3631       H  0.96582467  0.65533944  0.81388259     0.30800
H3632       H  0.81305076  0.58292048  0.82700125     0.30800
H3633       H  0.87927976  0.66484191  0.77809256     0.31100
C3634       C  0.75372970  0.69523076  0.56231606     0.03200
C3635       C  0.78062540  0.69452532  0.56083733    -0.12900
C3636       C  0.80523899  0.71459958  0.56942351     0.00700
C3637       C  0.80298381  0.73569807  0.57948614    -0.11500
C3638       C  0.77620379  0.73644346  0.58122084     0.03200
C3639       C  0.75160938  0.71624685  0.57257489    -0.10900
H3640       H  0.78225257  0.67790604  0.55317854     0.08800
H3641       H  0.82177954  0.75072570  0.58634444     0.06300
H3642       H  0.73076178  0.71645088  0.57400599     0.06200
C3643       C  0.63147821  0.85268846  0.56801483     0.03200
C3644       C  0.60288176  0.82691629  0.56591210    -0.12900
C3645       C  0.58395220  0.82728440  0.55531838     0.00700
C3646       C  0.59442777  0.85302633  0.54610312    -0.11500
C3647       C  0.62348618  0.87857205  0.54767460     0.03200
C3648       C  0.64185066  0.87837258  0.55871478    -0.10900
H3649       H  0.59459868  0.80719205  0.57315736     0.08800
H3650       H  0.57959313  0.85387134  0.53814373     0.06300
H3651       H  0.66348214  0.89897474  0.56050564     0.06200
C3652       C  0.93015383  0.51684430  0.60852396     0.03200
C3653       C  0.92758051  0.54505594  0.60781509    -0.12900
C3654       C  0.94635382  0.56987859  0.59906696     0.00700
C3655       C  0.96794767  0.56651364  0.59125379    -0.11500
C3656       C  0.97015831  0.53818927  0.59157595     0.03200
C3657       C  0.95122560  0.51332724  0.60026549    -0.10900
H3658       H  0.91049214  0.54726788  0.61373263     0.08800
H3659       H  0.48191575  0.58494351  0.58330973     0.06300
H3660       H  0.95304028  0.99443519  0.60315426     0.06200
C3661       C  0.91341460  0.70539889  0.57033995     0.80300
N3662       N  0.91360297  0.68091955  0.57752670    -0.78000
C3663       C  0.93903172  0.67911102  0.57913008     0.82700
N3664       N  0.96418229  0.70158334  0.57321098    -0.78000
C3665       C  0.96431830  0.72583673  0.56582520     0.82800
N3666       N  0.93894314  0.72789419  0.56456467    -0.79700
Zr3667     Zr  0.72569587  0.86495740  0.69183230     2.17500
O3668       O  0.70702821  0.82604498  0.71064182    -0.51300
O3669       O  0.72125062  0.90719361  0.70511273    -0.74500
O3670       O  0.76335561  0.87793990  0.71015838    -0.81200
O3671       O  0.64821182  0.81821569  0.67473931    -0.83000
O3672       O  0.80793436  0.90070581  0.69936234    -0.78600
O3673       O  0.67290892  0.83667470  0.69583110    -0.90200
O3674       O  0.72744401  0.94521979  0.68934187    -0.76200
O3675       O  0.76338310  0.91515843  0.68396363    -0.85700
O3676       O  0.70297206  0.88226495  0.67461476    -0.85400
O3677       O  0.76271137  0.85282917  0.68214884    -0.72100
O3678       O  0.70691268  0.82312448  0.67363902    -0.84300
Zr3679     Zr  0.75991620  0.88078609  0.63814597     2.26400
Zr3680     Zr  0.80012886  0.90348524  0.67404770     2.06300
Zr3681     Zr  0.68490987  0.84143176  0.65627955     2.10000
Zr3682     Zr  0.74054802  0.93172186  0.66644720     1.78800
O3683       O  0.65321254  0.78605627  0.64816868    -0.93100
O3684       O  0.77889749  0.98638644  0.67210602    -0.40900
O3685       O  0.72217178  0.89154985  0.64778022    -0.77500
O3686       O  0.77864773  0.92235657  0.65650167    -0.96200
O3687       O  0.78268350  0.86317067  0.65526484    -0.89500
O3688       O  0.72189559  0.83069681  0.64599194    -0.92400
C3689       C  0.72190238  0.93362963  0.70178683     1.01400
C3690       C  0.64911252  0.82079810  0.68837853     1.14300
C3691       C  0.79167239  0.89031335  0.71039335     1.05100
O3692       O  0.83210209  0.95766634  0.68352185    -0.94500
O3693       O  0.83692980  0.93029828  0.65615143    -0.90300
O3694       O  0.81287903  0.91383399  0.63483619    -0.83400
C3695       C  0.83628543  0.93011973  0.64252439     1.11700
O3696       O  0.73517280  0.77499914  0.68176572    -0.96500
Zr3697     Zr  0.74461628  0.81331294  0.66311829     1.88900
O3698       O  0.76628029  0.83944844  0.62507828    -0.73100
O3699       O  0.83912636  0.88829974  0.67580638    -0.52400
O3700       O  0.78855667  0.80806521  0.66833345    -0.97100
O3701       O  0.70417586  0.75989301  0.65713681    -0.54300
O3702       O  0.75690428  0.79894006  0.63997640    -0.73700
C3703       C  0.76368880  0.81177204  0.62775701     0.98700
O3704       O  0.77062404  0.91491022  0.61763830    -0.62500
O3705       O  0.64629678  0.85708380  0.65411069    -0.57300
O3706       O  0.72204676  0.86895257  0.62003159    -0.94000
O3707       O  0.67778461  0.84537679  0.63111450    -0.92400
O3708       O  0.69703723  0.93753948  0.66104582    -0.92700
O3709       O  0.74979592  0.96899882  0.64740577    -0.91500
C3710       C  0.69368498  0.85633331  0.62004141     1.17500
H3711       H  0.68701199  0.88509396  0.67862404     0.33500
H3712       H  0.79340317  0.94252586  0.65276204     0.44300
H3713       H  0.71339619  0.81522572  0.63817205     0.37900
H3714       H  0.77052398  0.84472059  0.68938004     0.34300
H3715       H  0.76797629  0.99854507  0.67410919     0.26100
H3716       H  0.85510703  0.90612430  0.68142523     0.32100
H3717       H  0.80232851  0.81893470  0.66052245     0.38000
H3718       H  0.70059039  0.95769888  0.66611579     0.32400
H3719       H  0.65488255  0.87611204  0.64807220     0.31300
H3720       H  0.63431381  0.78536261  0.64541577     0.33000
H3721       H  0.70092499  0.75970792  0.64675720     0.32000
H3722       H  0.76032650  0.96296422  0.64011790     0.36000
H3723       H  0.78653599  0.93647668  0.62067224     0.28700
H3724       H  0.71001825  0.83888270  0.71956629     0.32900
H3725       H  0.73967829  0.75844519  0.67753853     0.35800
H3726       H  0.63069453  0.83985944  0.64810313     0.28400
H3727       H  0.77992525  0.90658787  0.61064578     0.41300
H3728       H  0.83380533  0.97195738  0.67570029     0.31300
H3729       H  0.78696158  0.98510702  0.68147013     0.38900
H3730       H  0.68646920  0.75971094  0.66139850     0.30800
H3731       H  0.83122182  0.86990115  0.68220370     0.30800
H3732       H  0.72113882  0.81740968  0.71129828     0.31100
C3733       C  0.88698051  0.85981939  0.43303783     0.03200
C3734       C  0.86015290  0.86040408  0.43496860    -0.12900
C3735       C  0.83525808  0.84056235  0.42655087     0.00700
C3736       C  0.83714623  0.81990992  0.41613624    -0.11500
C3737       C  0.86387537  0.81926411  0.41401053     0.03200
C3738       C  0.88869091  0.83909380  0.42255578    -0.10900
H3739       H  0.85876521  0.87677555  0.44285125     0.08800
H3740       H  0.81800958  0.80488758  0.40947317     0.06300
H3741       H  0.90935277  0.83855610  0.42096747     0.06200
C3742       C  0.01282373  0.70485381  0.42828485     0.03200
C3743       C  0.54143161  0.73855095  0.43061524    -0.12900
C3744       C  0.55975598  0.73739835  0.44137526     0.00700
C3745       C  0.54940378  0.71028880  0.44974200    -0.11500
C3746       C  0.52123415  0.68404491  0.44720144     0.03200
C3747       C  0.00230575  0.67720524  0.43642392    -0.10900
H3748       H  0.54976056  0.75907114  0.42381606     0.08800
H3749       H  0.56398908  0.70881758  0.45766804     0.06300
H3750       H  0.98117059  0.65652727  0.43376915     0.06200
C3751       C  0.70440251  0.52677321  0.38509872     0.03200
C3752       C  0.68410953  0.53124939  0.39361454    -0.12900
C3753       C  0.66410737  0.50628137  0.40199659     0.00700
C3754       C  0.66648621  0.98277230  0.40431654    -0.11500
C3755       C  0.68869617  0.98107885  0.39637465     0.03200
C3756       C  0.70459777  0.49719871  0.38500637    -0.10900
H3757       H  0.68438332  0.55429515  0.39398551     0.08800
H3758       H  0.65387520  0.96373540  0.41155677     0.06300
H3759       H  0.72092602  0.49408892  0.37882615     0.06200
C3760       C  0.72859404  0.85202737  0.42618956     0.80300
N3761       N  0.70328731  0.83006063  0.43236946    -0.78000
C3762       C  0.67801506  0.83237323  0.43116836     0.82700
N3763       N  0.67804185  0.85609164  0.42350326    -0.78000
C3764       C  0.70281597  0.87772157  0.41712289     0.82800
N3765       N  0.72817509  0.87580868  0.41855866    -0.79700
Zr3766     Zr  0.59084447  0.53206253  0.52317081     2.17500
O3767       O  0.59033679  0.01141099  0.54873061    -0.51300
O3768       O  0.63406621  0.58066869  0.53210833    -0.74500
O3769       O  0.61310446  0.99360366  0.52610469    -0.81200
O3770       O  0.52391117  0.54425771  0.53131828    -0.83000
O3771       O  0.62506077  0.98176139  0.50430413    -0.78600
O3772       O  0.55801041  0.53319007  0.54160177    -0.90200
O3773       O  0.65210686  0.61579135  0.51428753    -0.76200
O3774       O  0.62397415  0.55157119  0.50381454    -0.85700
O3775       O  0.58465114  0.57506019  0.51414589    -0.85400
O3776       O  0.56903590  0.97921153  0.50756903    -0.72100
O3777       O  0.53990763  0.50940648  0.51596265    -0.84300
Zr3778     Zr  0.54998820  0.52569179  0.47011492     2.26400
Zr3779     Zr  0.60739595  0.50722998  0.48698648     2.06300
Zr3780     Zr  0.53406879  0.55203218  0.50623032     2.10000
Zr3781     Zr  0.61701226  0.59374672  0.49453012     1.78800
O3782       O  0.98118517  0.52470904  0.51057599    -0.93100
O3783       O  0.66495782  0.60994555  0.48367572    -0.40900
O3784       O  0.56651507  0.57120373  0.48646343    -0.77500
O3785       O  0.60156198  0.55028515  0.47731868    -0.96200
O3786       O  0.55644024  0.48342504  0.47961916    -0.89500
O3787       O  0.51731730  0.50727899  0.48967513    -0.92400
C3788       C  0.65331559  0.60734879  0.52700337     1.01400
C3789       C  0.53522035  0.53760514  0.54202335     1.14300
C3790       C  0.62475334  0.98063898  0.51789809     1.05100
O3791       O  0.66043554  0.53396193  0.48259557    -0.94500
O3792       O  0.61387479  0.50815183  0.46150332    -0.90300
O3793       O  0.57973033  0.51932219  0.45132034    -0.83400
C3794       C  0.60161411  0.51334520  0.45074523     1.11700
O3795       O  0.01302234  0.92563682  0.52079828    -0.96500
Zr3796     Zr  0.51841445  0.95861229  0.50061500     1.88900
O3797       O  0.50528109  0.47644753  0.46228927    -0.73100
O3798       O  0.59177182  0.94594829  0.47977614    -0.52400
O3799       O  0.51938551  0.90859330  0.49476201    -0.97100
O3800       O  0.97335610  0.94477003  0.51075679    -0.54300
O3801       O  0.98918715  0.93684485  0.48063565    -0.73700
C3802       C  0.48385732  0.94361706  0.46806206     0.98700
O3803       O  0.54459144  0.53564782  0.44524925    -0.62500
O3804       O  0.54148499  0.60419465  0.51525253    -0.57300
O3805       O  0.52920422  0.56228873  0.46726168    -0.94000
O3806       O  0.51720079  0.57608817  0.48859436    -0.92400
O3807       O  0.61496075  0.64189880  0.50276073    -0.92700
O3808       O  0.62748933  0.63195012  0.47575474    -0.91500
C3809       C  0.51904016  0.57755034  0.47501935     1.17500
H3810       H  0.58927932  0.59166877  0.52128470     0.33500
H3811       H  0.61436125  0.55952663  0.46935451     0.44300
H3812       H  0.49703229  0.50023931  0.48684559     0.37900
H3813       H  0.57000084  0.96114668  0.51147899     0.34300
H3814       H  0.67741142  0.63257626  0.48693883     0.26100
H3815       H  0.61154686  0.94862049  0.47729865     0.32100
H3816       H  0.03870111  0.91089196  0.49891909     0.38000
H3817       H  0.59498208  0.63806866  0.49988694     0.32400
H3818       H  0.52126749  0.60144613  0.51645442     0.31300
H3819       H  0.97740117  0.54330792  0.51164083     0.33000
H3820       H  0.96199179  0.94844114  0.50320554     0.32000
H3821       H  0.60986465  0.62174003  0.46938625     0.36000
H3822       H  0.52312655  0.52768764  0.44366968     0.28700
H3823       H  0.61179717  0.02064360  0.55078972     0.32900
H3824       H  0.99454637  0.90569991  0.51832740     0.35800
H3825       H  0.54930090  0.60648622  0.52506373     0.28400
H3826       H  0.55385080  0.55926159  0.44446347     0.41300
H3827       H  0.66707920  0.51812351  0.48496236     0.31300
H3828       H  0.67327321  0.59793692  0.48875505     0.38900
H3829       H  0.97676949  0.96143345  0.51819504     0.30800
H3830       H  0.58639016  0.93324737  0.48849304     0.30800
H3831       H  0.58249911  0.98784813  0.54869492     0.31100
C3832       C  0.90668675  0.99294544  0.23442224     0.03200
C3833       C  0.90509868  0.01516765  0.24410087    -0.12900
C3834       C  0.92709810  0.53515916  0.25196649     0.00700
C3835       C  0.95394722  0.53434692  0.25065130    -0.11500
C3836       C  0.95835174  0.01250809  0.24132106     0.03200
C3837       C  0.93331589  0.99156752  0.23310592    -0.10900
H3838       H  0.88448334  0.01602797  0.24525134     0.08800
H3839       H  0.97292192  0.55068599  0.25711967     0.06300
H3840       H  0.93473430  0.97484051  0.22545233     0.06200
C3841       C  0.78217829  0.65855353  0.23643152     0.03200
C3842       C  0.75449088  0.63194996  0.23337011    -0.12900
C3843       C  0.73637590  0.63243843  0.22235904     0.00700
C3844       C  0.74683676  0.65930226  0.21380407    -0.11500
C3845       C  0.77483055  0.68587100  0.21652033     0.03200
C3846       C  0.79227712  0.68546627  0.22788715    -0.10900
H3847       H  0.74622906  0.61134509  0.24010556     0.08800
H3848       H  0.73264702  0.66019079  0.20550497     0.06300
H3849       H  0.81303295  0.70673645  0.23043436     0.06200
C3850       C  0.57934003  0.81930687  0.27412158     0.03200
C3851       C  0.59936858  0.81369746  0.26592158    -0.12900
C3852       C  0.62004059  0.83810346  0.25757334     0.00700
C3853       C  0.62012769  0.86765012  0.25716767    -0.11500
C3854       C  0.59918801  0.87286125  0.26466256     0.03200
C3855       C  0.57917839  0.84882852  0.27337024    -0.10900
H3856       H  0.59868053  0.79045444  0.26592030     0.08800
H3857       H  0.63502535  0.88568794  0.25002306     0.06300
H3858       H  0.56288153  0.85267512  0.27921660     0.06200
C3859       C  0.56837330  0.51249340  0.23830758     0.80300
N3860       N  0.59352719  0.53541572  0.23231524    -0.78000
C3861       C  0.61925159  0.53379178  0.23325172     0.82700
N3862       N  0.61782938  0.00519899  0.23812677    -0.78000
C3863       C  0.59316154  0.98254419  0.24421756     0.82800
N3864       N  0.56791671  0.98496415  0.24371651    -0.79700
Zr3865     Zr  0.74485581  0.83698302  0.19151139     2.17500
O3866       O  0.74166068  0.81768743  0.21556684    -0.51300
O3867       O  0.78857089  0.88294037  0.20172828    -0.74500
O3868       O  0.77008976  0.80509726  0.19428077    -0.81200
O3869       O  0.67742010  0.84859056  0.19907601    -0.83000
O3870       O  0.78271546  0.79248970  0.17283465    -0.78600
O3871       O  0.71116588  0.83739316  0.20963184    -0.90200
O3872       O  0.80557134  0.92296440  0.18599369    -0.76200
O3873       O  0.78010052  0.85859856  0.17311097    -0.85700
O3874       O  0.74078223  0.88205544  0.18342747    -0.85400
O3875       O  0.72934897  0.79372958  0.17392564    -0.72100
O3876       O  0.69471488  0.81602503  0.18332549    -0.84300
Zr3877     Zr  0.71128116  0.83999932  0.13820080     2.26400
Zr3878     Zr  0.76480637  0.81626392  0.15533450     2.06300
Zr3879     Zr  0.69105550  0.86072570  0.17453471     2.10000
Zr3880     Zr  0.77529538  0.90291557  0.16469060     1.78800
O3881       O  0.63721402  0.83586970  0.17404800    -0.93100
O3882       O  0.82589409  0.92157222  0.15677727    -0.40900
O3883       O  0.72591286  0.88274024  0.15582211    -0.77500
O3884       O  0.76162937  0.86163017  0.14660673    -0.96200
O3885       O  0.71489369  0.79508325  0.14669378    -0.89500
O3886       O  0.67585056  0.81898313  0.15660361    -0.92400
C3887       C  0.80681518  0.91142554  0.19795688     1.01400
C3888       C  0.68795297  0.84103077  0.20980638     1.14300
C3889       C  0.78108047  0.79090042  0.18642822     1.05100
O3890       O  0.81841059  0.84375204  0.15309309    -0.94500
O3891       O  0.77452768  0.82088126  0.13006617    -0.90300
O3892       O  0.74065639  0.83218466  0.11968727    -0.83400
C3893       C  0.76277054  0.82658874  0.11924337     1.11700
O3894       O  0.66855839  0.73529093  0.18373748    -0.96500
Zr3895     Zr  0.67993572  0.77460866  0.16534539     1.88900
O3896       O  0.66610683  0.79464292  0.12855726    -0.73100
O3897       O  0.75803339  0.76524829  0.14515029    -0.52400
O3898       O  0.67760601  0.72415762  0.15711608    -0.97100
O3899       O  0.63226269  0.76135385  0.17594200    -0.54300
O3900       O  0.64723147  0.75591235  0.14493730    -0.73700
C3901       C  0.64647170  0.76717937  0.13284261     0.98700
O3902       O  0.71636114  0.85978311  0.11413672    -0.62500
O3903       O  0.69527588  0.90906952  0.18651750    -0.57300
O3904       O  0.69050116  0.87650929  0.13553425    -0.94000
O3905       O  0.67867879  0.88915012  0.15718205    -0.92400
O3906       O  0.77233542  0.95158158  0.17093030    -0.92700
O3907       O  0.78906803  0.94061318  0.14548104    -0.91500
C3908       C  0.68083158  0.89167647  0.14366359     1.17500
H3909       H  0.74481962  0.89785102  0.19098182     0.33500
H3910       H  0.77534510  0.87149250  0.13900231     0.44300
H3911       H  0.65615768  0.81316485  0.15329795     0.37900
H3912       H  0.72905158  0.77480396  0.17764596     0.34300
H3913       H  0.83787960  0.94190624  0.16228222     0.26100
H3914       H  0.77825750  0.76771316  0.14456139     0.32100
H3915       H  0.68249241  0.72696757  0.14690561     0.38000
H3916       H  0.79309646  0.96815779  0.17284949     0.32400
H3917       H  0.70949831  0.92699028  0.18078445     0.31300
H3918       H  0.63265948  0.85208295  0.17857590     0.33000
H3919       H  0.61946979  0.76083368  0.16796848     0.32000
H3920       H  0.77448872  0.92868936  0.13777775     0.36000
H3921       H  0.69596597  0.85303951  0.11071253     0.28700
H3922       H  0.76235661  0.82621037  0.21896199     0.32900
H3923       H  0.64850291  0.71763123  0.18135258     0.35800
H3924       H  0.67597175  0.90841914  0.18479946     0.28400
H3925       H  0.72589271  0.88350452  0.11518343     0.41300
H3926       H  0.82375363  0.82632256  0.15189437     0.31300
H3927       H  0.83180327  0.90626145  0.16071405     0.38900
H3928       H  0.63577573  0.78064226  0.18175297     0.30800
H3929       H  0.74833807  0.74949140  0.15266577     0.30800
H3930       H  0.73380318  0.79413654  0.21452669     0.31100
Zr3931     Zr  0.91261581  0.68721087  0.30509165     2.17500
O3932       O  0.92353459  0.72333037  0.28535236    -0.51300
O3933       O  0.91677681  0.64503021  0.29156075    -0.74500
O3934       O  0.96547033  0.71694513  0.30043565    -0.81200
O3935       O  0.83002689  0.65430894  0.29947490    -0.83000
O3936       O  0.99031744  0.73192395  0.32162102    -0.78600
O3937       O  0.87343579  0.67452180  0.28767579    -0.90200
O3938       O  0.90714346  0.60509466  0.30686386    -0.76200
O3939       O  0.93499637  0.66803145  0.32170580    -0.85700
O3940       O  0.87383583  0.63822245  0.31343856    -0.85400
O3941       O  0.93353117  0.72858359  0.32344454    -0.72100
O3942       O  0.87719459  0.70071825  0.31559030    -0.84300
Zr3943     Zr  0.88102260  0.67201978  0.35955112     2.26400
Zr3944     Zr  0.95471751  0.70821915  0.34035732     2.06300
Zr3945     Zr  0.83910533  0.65168758  0.32438191     2.10000
Zr3946     Zr  0.89617812  0.61938082  0.33011969     1.78800
O3947       O  0.80619120  0.67542351  0.32397862    -0.93100
O3948       O  0.93692509  0.60765160  0.33395829    -0.40900
O3949       O  0.86029200  0.63116101  0.34109434    -0.77500
O3950       O  0.91669282  0.65883596  0.34904515    -0.96200
O3951       O  0.91958760  0.72116005  0.35121760    -0.89500
O3952       O  0.85892061  0.69163689  0.34297867    -0.92400
C3953       C  0.91382172  0.61737764  0.29456413     1.01400
C3954       C  0.84522636  0.66320597  0.28812196     1.14300
C3955       C  0.98927675  0.73188425  0.30799840     1.05100
O3956       O  0.98787328  0.68519882  0.34305527    -0.94500
O3957       O  0.96424088  0.70921485  0.36560707    -0.90300
O3958       O  0.92063118  0.68915672  0.37726117    -0.83400
C3959       C  0.94891809  0.70110190  0.37699448     1.11700
O3960       O  0.91150688  0.77975089  0.31591493    -0.96500
Zr3961     Zr  0.89769483  0.74037913  0.33446265     1.88900
O3962       O  0.87497620  0.71376263  0.37235262    -0.73100
O3963       O  0.99108190  0.76229152  0.34827997    -0.52400
O3964       O  0.94039838  0.79098311  0.34184368    -0.97100
O3965       O  0.85814175  0.75294902  0.32870463    -0.54300
O3966       O  0.88426524  0.75412169  0.35728327    -0.73700
C3967       C  0.87738057  0.74126748  0.36947286     0.98700
O3968       O  0.86951778  0.63403321  0.37868820    -0.62500
O3969       O  0.80054097  0.59893801  0.31614999    -0.57300
O3970       O  0.82828522  0.63897933  0.36409969    -0.94000
O3971       O  0.80422814  0.62389459  0.34273188    -0.92400
O3972       O  0.85362021  0.56734121  0.32451108    -0.92700
O3973       O  0.88787665  0.58198579  0.34899600    -0.91500
C3974       C  0.80495020  0.62285941  0.35630324     1.17500
H3975       H  0.86433931  0.62258652  0.30567080     0.33500
H3976       H  0.92472961  0.65067229  0.35616324     0.44300
H3977       H  0.84346649  0.69484876  0.34729964     0.37900
H3978       H  0.94864844  0.74826981  0.31955878     0.34300
H3979       H  0.93127236  0.58735573  0.32846820     0.26100
H3980       H  0.01011675  0.76177259  0.34862204     0.32100
H3981       H  0.94375098  0.78854591  0.35198814     0.38000
H3982       H  0.83762852  0.57232664  0.32187693     0.32400
H3983       H  0.78435071  0.60269795  0.31259270     0.31300
H3984       H  0.78614666  0.65694274  0.32260242     0.33000
H3985       H  0.84361859  0.74376516  0.33640772     0.32000
H3986       H  0.86863840  0.57774265  0.35308321     0.36000
H3987       H  0.85537084  0.61277201  0.37445467     0.28700
H3988       H  0.93447657  0.71697747  0.27842141     0.32900
H3989       H  0.91156526  0.79888051  0.32048833     0.35800
H3990       H  0.80849024  0.59349917  0.30752076     0.28400
H3991       H  0.88757240  0.63195080  0.38027487     0.41300
H3992       H  0.99450983  0.68368497  0.33331431     0.31300
H3993       H  0.95366956  0.62414466  0.32866937     0.38900
H3994       H  0.84811046  0.73918725  0.32020800     0.30800
H3995       H  0.99300282  0.77617702  0.34024175     0.30800
H3996       H  0.93823697  0.74484387  0.28912719     0.31100
C3997       C  0.56816754  0.92604279  0.25213846    -0.21200
C3998       C  0.59404431  0.95558972  0.25125295    -0.09300
C3999       C  0.62094919  0.95857716  0.25651548     0.29600
C4000       C  0.62204298  0.93193166  0.26178063    -0.21200
C4001       C  0.59649988  0.90191504  0.26186455    -0.09300
C4002       C  0.56933069  0.89931988  0.25732260     0.29600
F4003       F  0.54433272  0.87049970  0.25686612    -0.19800
H4004       H  0.54724690  0.92317609  0.24814406     0.18000
H4005       H  0.64312006  0.93443575  0.26533365     0.18000
F4006       F  0.64633174  0.98704186  0.25637358    -0.19800
C4007       C  0.53247430  0.77737503  0.30543477    -0.21200
C4008       C  0.51043585  0.74885715  0.29896090    -0.09300
C4009       C  0.51305917  0.74224094  0.28447918     0.29600
C4010       C  0.53646213  0.76462740  0.27655411    -0.21200
C4011       C  0.55727010  0.79394423  0.28289203    -0.09300
C4012       C  0.55549942  0.79989818  0.29745055     0.29600
F4013       F  0.57559070  0.82797713  0.30383620    -0.19800
H4014       H  0.53101431  0.78313463  0.31653023     0.18000
H4015       H  0.53761107  0.75972813  0.26532005     0.18000
F4016       F  0.49267638  0.71459409  0.27789441    -0.19800
C4017       C  0.62417403  0.81357387  0.23487607    -0.21200
C4018       C  0.63816786  0.83188674  0.24717860    -0.09300
C4019       C  0.66919906  0.84992847  0.24778516     0.29600
C4020       C  0.68583106  0.85135733  0.23578576    -0.21200
C4021       C  0.67148350  0.83529861  0.22308185    -0.09300
C4022       C  0.64067390  0.81538826  0.22285222     0.29600
F4023       F  0.62645385  0.79871916  0.21080491    -0.19800
H4024       H  0.60024661  0.79985226  0.23423169     0.18000
H4025       H  0.70961310  0.86657826  0.23612943     0.18000
F4026       F  0.68309667  0.86767762  0.25966644    -0.19800
C4027       C  0.68202801  0.61424744  0.22257920    -0.21200
C4028       C  0.70528129  0.60661188  0.22139421    -0.09300
C4029       C  0.69884128  0.57433710  0.22181419     0.29600
C4030       C  0.67024387  0.55060411  0.22472416    -0.21200
C4031       C  0.64738586  0.55845103  0.22723457    -0.09300
C4032       C  0.65319684  0.59035657  0.22543312     0.29600
F4033       F  0.63177457  0.59900595  0.22753130    -0.19800
H4034       H  0.68658242  0.63905017  0.22233563     0.18000
H4035       H  0.66632883  0.52613947  0.22566801     0.18000
F4036       F  0.72063535  0.56603557  0.22023979    -0.19800
C4037       C  0.78361654  0.71449940  0.19375387    -0.21200
C4038       C  0.78381591  0.71552089  0.20865659    -0.09300
C4039       C  0.78916256  0.74407630  0.21597862     0.29600
C4040       C  0.79159948  0.77018122  0.20848177    -0.21200
C4041       C  0.78861913  0.76824241  0.19357852    -0.09300
C4042       C  0.78630191  0.74074872  0.18621033     0.29600
F4043       F  0.78377889  0.73785919  0.17182311    -0.19800
H4044       H  0.77980326  0.69270287  0.18797885     0.18000
H4045       H  0.79355186  0.79104322  0.21444055     0.18000
F4046       F  0.78908038  0.74566076  0.23040611    -0.19800
C4047       C  0.78319237  0.64714460  0.26203952    -0.21200
C4048       C  0.79874162  0.65924722  0.24944900    -0.09300
C4049       C  0.82973342  0.67232668  0.24962446     0.29600
C4050       C  0.84464002  0.67293164  0.26213828    -0.21200
C4051       C  0.82904342  0.66087062  0.27475077    -0.09300
C4052       C  0.79797694  0.64785575  0.27452938     0.29600
F4053       F  0.78165993  0.63628447  0.28638921    -0.19800
H4054       H  0.75942205  0.63772248  0.26234889     0.18000
H4055       H  0.86851142  0.68325423  0.26195807     0.18000
F4056       F  0.84566456  0.68426066  0.23770973    -0.19800
C4057       C  0.51176655  0.54267208  0.23509544    -0.21200
C4058       C  0.98677469  0.01181988  0.23987959    -0.09300
C4059       C  0.98790244  0.98288220  0.24087654     0.29600
C4060       C  0.51258426  0.98514342  0.23798379    -0.21200
C4061       C  0.54010371  0.01305403  0.23744929    -0.09300
C4062       C  0.53891407  0.54228274  0.23495555     0.29600
F4063       F  0.56408888  0.57018991  0.23292609    -0.19800
H4064       H  0.51143343  0.56505125  0.23342584     0.18000
H4065       H  0.51135372  0.96166438  0.23818847     0.18000
F4066       F  0.96292914  0.95486825  0.24307549    -0.19800
C4067       C  0.84236395  0.91863587  0.21772191    -0.21200
C4068       C  0.83134240  0.93228006  0.20786819    -0.09300
C4069       C  0.84491572  0.96601837  0.20715904     0.29600
C4070       C  0.86917246  0.98547398  0.21594718    -0.21200
C4071       C  0.88064200  0.97179887  0.22545223    -0.09300
C4072       C  0.86698494  0.93819757  0.22636430     0.29600
F4073       F  0.87727195  0.92436959  0.23570422    -0.19800
H4074       H  0.83237186  0.89278503  0.21849611     0.18000
H4075       H  0.87934434  0.01134603  0.21519981     0.18000
F4076       F  0.83463744  0.98030488  0.19805849    -0.19800
C4077       C  0.92835759  0.57617477  0.28714734    -0.21200
C4078       C  0.91829756  0.59781618  0.28328777    -0.09300
C4079       C  0.91137617  0.59902765  0.26891405     0.29600
C4080       C  0.91403195  0.57840293  0.25872374    -0.21200
C4081       C  0.92425550  0.55694847  0.26266821    -0.09300
C4082       C  0.93144500  0.55605746  0.27697841     0.29600
F4083       F  0.94060727  0.53499992  0.28121440    -0.19800
H4084       H  0.93380520  0.57473250  0.29813011     0.18000
H4085       H  0.90828847  0.57927530  0.24773112     0.18000
F4086       F  0.90120925  0.61930319  0.26478252    -0.19800
C4087       C  0.72222752  0.95941412  0.40338625    -0.21200
C4088       C  0.69440172  0.95379751  0.39835420    -0.09300
C4089       C  0.67082215  0.92232247  0.39763006     0.29600
C4090       C  0.67446211  0.89727709  0.40292147    -0.21200
C4091       C  0.70158687  0.90322362  0.40906530    -0.09300
C4092       C  0.72585068  0.93429500  0.40878726     0.29600
F4093       F  0.75213976  0.94103158  0.41493609    -0.19800
H4094       H  0.74050375  0.98365379  0.40418598     0.18000
H4095       H  0.65557089  0.87341268  0.40284155     0.18000
F4096       F  0.64377926  0.91618944  0.39262409    -0.19800
C4097       C  0.73180489  0.54918561  0.36290464    -0.21200
C4098       C  0.72755210  0.55360459  0.37732754    -0.09300
C4099       C  0.74757903  0.58218555  0.38456900     0.29600
C4100       C  0.77238054  0.60518674  0.37760633    -0.21200
C4101       C  0.77722179  0.60031191  0.36326338    -0.09300
C4102       C  0.75619430  0.57234708  0.35586244     0.29600
F4103       F  0.76002520  0.56632305  0.34204223    -0.19800
H4104       H  0.71662303  0.52723190  0.35719560     0.18000
H4105       H  0.78813300  0.62649718  0.38351276     0.18000
F4106       F  0.74413910  0.58696494  0.39858229    -0.19800
C4107       C  0.65921346  0.53739535  0.42255314    -0.21200
C4108       C  0.64563774  0.51165494  0.41264720    -0.09300
C4109       C  0.61588035  0.48844340  0.41451976     0.29600
C4110       C  0.60069006  0.48999205  0.42661135    -0.21200
C4111       C  0.61515923  0.51446727  0.43695488    -0.09300
C4112       C  0.64418305  0.53864730  0.43469733     0.29600
F4113       F  0.65841463  0.56263096  0.44460719    -0.19800
H4114       H  0.68216406  0.55528995  0.42140926     0.18000
H4115       H  0.57722550  0.96083729  0.43081009     0.18000
F4116       F  0.60207831  0.46348593  0.40500563    -0.19800
C4117       C  0.61330096  0.75299393  0.44027661    -0.21200
C4118       C  0.59115063  0.76214131  0.44214909    -0.09300
C4119       C  0.59899968  0.79486773  0.44270353     0.29600
C4120       C  0.62814248  0.81785765  0.44031270    -0.21200
C4121       C  0.64982426  0.80858388  0.43715968    -0.09300
C4122       C  0.64250758  0.77602930  0.43775566     0.29600
F4123       F  0.66273299  0.76614055  0.43456197    -0.19800
H4124       H  0.60755857  0.72779957  0.43969947     0.18000
H4125       H  0.63340995  0.84289833  0.44013197     0.18000
F4126       F  0.57819994  0.80446387  0.44480661    -0.19800
C4127       C  0.96601473  0.69553343  0.41591790    -0.21200
C4128       C  0.99645336  0.70546205  0.41543398    -0.09300
C4129       C  0.01122316  0.71545838  0.40246220     0.29600
C4130       C  0.99576802  0.71513690  0.39025700    -0.21200
C4131       C  0.96512946  0.70451713  0.39055555    -0.09300
C4132       C  0.95042372  0.69515096  0.40364193     0.29600
F4133       F  0.92096355  0.68510800  0.40460944    -0.19800
H4134       H  0.95428386  0.68798556  0.42582473     0.18000
H4135       H  0.00785828  0.72236250  0.38043055     0.18000
F4136       F  0.53865877  0.72416759  0.40024908    -0.19800
C4137       C  0.51256040  0.62668799  0.47606846    -0.21200
C4138       C  0.51185821  0.60076842  0.46801303    -0.09300
C4139       C  0.50896468  0.60043572  0.45310615     0.29600
C4140       C  0.00474880  0.61711360  0.44740910    -0.21200
C4141       C  0.51324320  0.65383824  0.45446623    -0.09300
C4142       C  0.51354707  0.65315799  0.46936027     0.29600
F4143       F  0.51642617  0.67883317  0.47737002    -0.19800
H4144       H  0.51455678  0.62763956  0.48754980     0.18000
H4145       H  0.00291440  0.61611608  0.43591824     0.18000
F4146       F  0.00031584  0.56483274  0.44644540    -0.19800
C4147       C  0.80957108  0.87337140  0.42520982    -0.21200
C4148       C  0.80812884  0.84363735  0.42768875    -0.09300
C4149       C  0.78073315  0.81706501  0.43057109     0.29600
C4150       C  0.75495124  0.82009232  0.43043653    -0.21200
C4151       C  0.75616766  0.84961096  0.42735958    -0.09300
C4152       C  0.78391522  0.87646111  0.42504082     0.29600
F4153       F  0.78641632  0.90579302  0.42266297    -0.19800
H4154       H  0.83061412  0.89411519  0.42306653     0.18000
H4155       H  0.73397132  0.79913582  0.43241508     0.18000
F4156       F  0.77897827  0.78831623  0.43354497    -0.19800
C4157       C  0.86183719  0.78144712  0.37778492    -0.21200
C4158       C  0.87236692  0.75983045  0.38100949    -0.09300
C4159       C  0.87947559  0.75747202  0.39521247     0.29600
C4160       C  0.87649158  0.77676469  0.40590073    -0.21200
C4161       C  0.86611008  0.79841318  0.40265302    -0.09300
C4162       C  0.85859638  0.80051059  0.38850673     0.29600
F4163       F  0.84919887  0.82183292  0.38498655    -0.19800
H4164       H  0.85630966  0.78375723  0.36692301     0.18000
H4165       H  0.88242252  0.77493020  0.41675007     0.18000
F4166       F  0.89049245  0.73754831  0.39869845    -0.19800
C4167       C  0.91028859  0.88180477  0.45677820    -0.21200
C4168       C  0.91307864  0.88118037  0.44196417    -0.09300
C4169       C  0.94043045  0.90176242  0.43586337     0.29600
C4170       C  0.96426338  0.92320891  0.44449285    -0.21200
C4171       C  0.96140728  0.92383386  0.45932536    -0.09300
C4172       C  0.93424187  0.90258155  0.46541366     0.29600
F4173       F  0.93051850  0.90248846  0.47969994    -0.19800
H4174       H  0.88945041  0.86604593  0.46167913     0.18000
H4175       H  0.98503759  0.93916802  0.43959907     0.18000
F4176       F  0.94384870  0.90181977  0.42155953    -0.19800
C4177       C  0.96692740  0.62900945  0.59799846    -0.21200
C4178       C  0.94232673  0.59831198  0.59677072    -0.09300
C4179       C  0.91556204  0.59490097  0.59117899     0.29600
C4180       C  0.91406045  0.62172288  0.58623658    -0.21200
C4181       C  0.93932253  0.65212077  0.58655760    -0.09300
C4182       C  0.96556751  0.65569194  0.59293393     0.29600
F4183       F  0.99024799  0.68477641  0.59389394    -0.19800
H4184       H  0.48991377  0.63189341  0.60142219     0.18000
H4185       H  0.89366169  0.61832497  0.58132775     0.18000
F4186       F  0.89168866  0.56536344  0.58936099    -0.19800
C4187       C  0.89040256  0.97102460  0.61314441    -0.21200
C4188       C  0.91253959  0.99782466  0.62047222    -0.12300
C4189       C  0.91113268  0.00080615  0.63528549     0.29600
C4190       C  0.88702020  0.97765925  0.64258241    -0.21200
C4191       C  0.86386097  0.95154201  0.63513760    -0.09300
C4192       C  0.86620210  0.94811884  0.62033862     0.29600
F4193       F  0.84469295  0.92323569  0.61268089    -0.19800
H4194       H  0.88957269  0.45821256  0.59854188     0.18000
H4195       H  0.88586081  0.98099392  0.65395536     0.18000
F4196       F  0.93268817  0.02640911  0.64259055    -0.19800
C4197       C  0.51895262  0.55220897  0.57978785    -0.21200
C4198       C  0.98937806  0.53357735  0.58119096    -0.09300
C4199       C  0.97691406  0.50821645  0.57099497     0.29600
C4200       C  0.99308358  0.50826760  0.55909336    -0.21200
C4201       C  0.52004866  0.53387217  0.55557637    -0.09300
C4202       C  0.53496520  0.55269074  0.56767402     0.29600
F4203       F  0.56439339  0.57354917  0.56730562    -0.19800
H4204       H  0.53030027  0.56830074  0.58875451     0.18000
H4205       H  0.98266853  0.48959206  0.55089447     0.18000
F4206       F  0.94826190  0.48507690  0.57184359    -0.19800
C4207       C  0.50107313  0.78565185  0.56071951    -0.21200
C4208       C  0.49526551  0.75365197  0.56199063    -0.09300
C4209       C  0.51790771  0.74578619  0.55873664     0.29600
C4210       C  0.54615192  0.76973354  0.55539645    -0.21200
C4211       C  0.55258312  0.80199110  0.55521380    -0.09300
C4212       C  0.52956422  0.80974124  0.55741771     0.29600
F4213       F  0.53515043  0.84081442  0.55756084    -0.19800
H4214       H  0.48408007  0.79235626  0.56312944     0.18000
H4215       H  0.56354244  0.76328667  0.55364569     0.18000
F4216       F  0.00946313  0.71158622  0.55579343    -0.19800
C4217       C  0.63329324  0.84613413  0.59401834    -0.21200
C4218       C  0.64831277  0.85414773  0.58107972    -0.09300
C4219       C  0.67866856  0.86320414  0.58096565     0.29600
C4220       C  0.69334048  0.86346705  0.59358882    -0.21200
C4221       C  0.67806644  0.85501292  0.60653921    -0.09300
C4222       C  0.64775956  0.84647917  0.60654869     0.29600
F4223       F  0.63192864  0.83912155  0.61869975    -0.19800
H4224       H  0.61012193  0.83995957  0.59450523     0.18000
H4225       H  0.71667138  0.87033797  0.59321149     0.18000
F4226       F  0.69399141  0.87120584  0.56867034    -0.19800
C4227       C  0.63047202  0.93138482  0.51708746    -0.21200
C4228       C  0.63465451  0.95946346  0.52453870    -0.09300
C4229       C  0.64145237  0.96283334  0.53916114     0.29600
C4230       C  0.64034624  0.93705576  0.54646087    -0.21200
C4231       C  0.63246704  0.90762609  0.53930367    -0.09300
C4232       C  0.62907379  0.90546012  0.52443123     0.29600
F4233       F  0.62240792  0.87760104  0.51716033    -0.19800
H4234       H  0.62539447  0.92822286  0.50579785     0.18000
H4235       H  0.64324509  0.93926704  0.55791129     0.18000
F4236       F  0.64675863  0.99008624  0.54660073    -0.19800
C4237       C  0.85967625  0.73867754  0.56554718    -0.21200
C4238       C  0.83267964  0.71188931  0.56869375    -0.09300
C4239       C  0.83219190  0.68283914  0.57182271     0.29600
C4240       C  0.85843366  0.68083381  0.57208446    -0.21200
C4241       C  0.88568149  0.70768639  0.56912908    -0.09300
C4242       C  0.88596773  0.73661210  0.56558037     0.29600
F4243       F  0.91161884  0.76319378  0.56255102    -0.19800
H4244       H  0.86036367  0.76126373  0.56312881     0.18000
H4245       H  0.85739184  0.65822082  0.57476614     0.18000
F4246       F  0.80645271  0.65674530  0.57520049    -0.19800
C4247       C  0.77601350  0.74893574  0.60705366    -0.21200
C4248       C  0.77343527  0.75623891  0.59296224    -0.09300
C4249       C  0.76870670  0.78247861  0.59030252     0.29600
C4250       C  0.76602467  0.80071399  0.60164639    -0.21200
C4251       C  0.76798602  0.79308661  0.61584451    -0.09300
C4252       C  0.77322225  0.76698435  0.61840432     0.29600
F4253       F  0.77598467  0.75899768  0.63184781    -0.19800
H4254       H  0.77997175  0.72894349  0.60925886     0.18000
H4255       H  0.76206335  0.82062664  0.59929267     0.18000
F4256       F  0.76727712  0.79082732  0.57676007    -0.19800
C4257       C  0.70190154  0.64996950  0.55965808    -0.21200
C4258       C  0.72776760  0.67322104  0.55337731    -0.09300
C4259       C  0.72902421  0.67467449  0.53849503     0.29600
C4260       C  0.70472253  0.65343115  0.53006862    -0.21200
C4261       C  0.67876413  0.62985050  0.53626397    -0.09300
C4262       C  0.67769081  0.62828103  0.55123218     0.29600
F4263       F  0.65316716  0.60617402  0.55777706    -0.19800
H4264       H  0.70063696  0.64833705  0.57112004     0.18000
H4265       H  0.70639764  0.65525210  0.51862396     0.18000
F4266       F  0.75367727  0.69699166  0.53211082    -0.19800
C4267       C  0.51292726  0.60085334  0.74317518    -0.21200
C4268       C  0.54051410  0.60163623  0.74463192    -0.09300
C4269       C  0.56631355  0.62990874  0.74117278     0.29600
C4270       C  0.56443350  0.65709068  0.73711027    -0.21200
C4271       C  0.53697093  0.65676927  0.73651824    -0.09300
C4272       C  0.51111365  0.62804160  0.73917218     0.29600
F4273       F  0.48407459  0.62643580  0.73818576    -0.19800
H4274       H  0.49261350  0.57931338  0.74542792     0.18000
H4275       H  0.58468048  0.67899346  0.73519450     0.18000
F4276       F  0.59352069  0.63206277  0.74243141    -0.19800
C4277       C  0.57472161  0.75489614  0.69969704    -0.21200
C4278       C  0.57501349  0.76337671  0.71414525    -0.09300
C4279       C  0.59735034  0.79322647  0.71935658     0.29600
C4280       C  0.62024325  0.81296166  0.71052466    -0.21200
C4281       C  0.62136501  0.80334892  0.69635634    -0.09300
C4282       C  0.59753799  0.77482328  0.69079029     0.29600
F4283       F  0.59737698  0.76486926  0.67710472    -0.19800
H4284       H  0.55747600  0.73209526  0.69547533     0.18000
H4285       H  0.63803656  0.83503815  0.71503412     0.18000
F4286       F  0.59853581  0.80207480  0.73328968    -0.19800
C4287       C  0.51996940  0.75083205  0.76763591    -0.21200
C4288       C  0.50532567  0.73444209  0.75505525    -0.09300
C4289       C  0.97427516  0.72907398  0.75242980     0.29600
C4290       C  0.96019521  0.73082769  0.76482064    -0.21200
C4291       C  0.97585968  0.74064270  0.77789579    -0.09300
C4292       C  0.00676993  0.75249317  0.77792450     0.29600
F4293       F  0.02314163  0.76338164  0.79010285    -0.19800
H4294       H  0.54383861  0.76148068  0.76851853     0.18000
H4295       H  0.93655646  0.72218654  0.76429382     0.18000
F4296       F  0.95813244  0.71654622  0.74026867    -0.19800
C4297       C  0.64793914  0.56367293  0.75064287    -0.21200
C4298       C  0.64581273  0.53315354  0.75178983    -0.09300
C4299       C  0.61783572  0.50610583  0.75276658     0.29600
C4300       C  0.59252397  0.50992038  0.75324387    -0.21200
C4301       C  0.59470907  0.54065702  0.75259174    -0.09300
C4302       C  0.62270050  0.56750637  0.75101988     0.29600
F4303       F  0.62596116  0.59762768  0.75044625    -0.19800
H4304       H  0.66936184  0.58474042  0.74969281     0.18000
H4305       H  0.57120060  0.48878069  0.75428153     0.18000
F4306       F  0.61505301  0.47625626  0.75386844    -0.19800
C4307       C  0.77369584  0.59612651  0.76671883    -0.21200
C4308       C  0.74639470  0.57381946  0.77211938    -0.09300
C4309       C  0.74108361  0.57472474  0.78671913     0.29600
C4310       C  0.76302945  0.59722830  0.79579493    -0.21200
C4311       C  0.79069729  0.61943867  0.79051270    -0.09300
C4312       C  0.79569867  0.61882379  0.77577132     0.29600
F4313       F  0.82201983  0.63936702  0.77006843    -0.19800
H4314       H  0.77790675  0.59605094  0.75543925     0.18000
H4315       H  0.75845427  0.59675450  0.80704677     0.18000
F4316       F  0.71487754  0.55329477  0.79226419    -0.19800
C4317       C  0.69879144  0.99067263  0.71958421    -0.21200
C4318       C  0.70661094  0.99042095  0.73383932    -0.09300
C4319       C  0.71890368  0.97062075  0.73760538     0.29600
C4320       C  0.72333422  0.95160984  0.72721296    -0.21200
C4321       C  0.71590134  0.95233813  0.71291397    -0.09300
C4322       C  0.70331584  0.97188021  0.70922454     0.29600
F4323       F  0.69487989  0.97245742  0.69561248    -0.19800
H4324       H  0.69139701  0.50222209  0.71558532     0.18000
H4325       H  0.73301332  0.93672260  0.73030795     0.18000
F4326       F  0.72611437  0.96919385  0.75134082    -0.19800
C4327       C  0.94997919  0.94152364  0.77702976    -0.21200
C4328       C  0.92592201  0.94768007  0.77848892    -0.09300
C4329       C  0.93094468  0.97951998  0.77814473     0.29600
C4330       C  0.96508306  0.50214350  0.77042972    -0.21200
C4331       C  0.98989261  0.49822506  0.76721259    -0.09300
C4332       C  0.97806441  0.96617084  0.77394529     0.29600
F4333       F  0.00015553  0.95858260  0.77177035    -0.19800
H4334       H  0.94663317  0.91714387  0.77719158     0.18000
H4335       H  0.96611767  0.52549128  0.76993777     0.18000
F4336       F  0.90840112  0.98644325  0.78023969    -0.19800
C4337       C  0.85887645  0.83277941  0.80268542    -0.21200
C4338       C  0.85867439  0.83387135  0.78784425    -0.09300
C4339       C  0.86003026  0.80927992  0.77967362     0.29600
C4340       C  0.86370494  0.78528230  0.78633549    -0.21200
C4341       C  0.86599313  0.78539653  0.80123950    -0.09300
C4342       C  0.86227046  0.80880254  0.80936586     0.29600
F4343       F  0.86314959  0.80958966  0.82379870    -0.19800
H4344       H  0.85782050  0.85153788  0.80913420     0.18000
H4345       H  0.86614645  0.76752730  0.77978336     0.18000
F4346       F  0.86021855  0.80991718  0.76526476    -0.19800
C4347       C  0.83710129  0.90108246  0.72425777    -0.21200
C4348       C  0.80661716  0.89139024  0.72408798    -0.09300
C4349       C  0.79075330  0.88089139  0.73685092     0.29600
C4350       C  0.80526920  0.88044664  0.74937629    -0.21200
C4351       C  0.83562974  0.89017166  0.74938829    -0.09300
C4352       C  0.85136547  0.90012729  0.73668017     0.29600
F4353       F  0.88048630  0.90811595  0.73620203    -0.19800
H4354       H  0.84995876  0.90872665  0.71466219     0.18000
H4355       H  0.79285799  0.87268388  0.75909537     0.18000
F4356       F  0.76121366  0.87069030  0.73727789    -0.19800
C4357       C  0.53200843  0.76680179  0.86821434    -0.21200
C4358       C  0.00958956  0.75068577  0.87269852    -0.09300
C4359       C  0.49967252  0.74195614  0.88805533     0.29600
C4360       C  0.52308559  0.76010264  0.89748284    -0.21200
C4361       C  0.55088803  0.78192191  0.89239649    -0.09300
C4362       C  0.55545043  0.78469739  0.87769030     0.29600
F4363       F  0.58219659  0.80582051  0.87252110    -0.19800
H4364       H  0.04304739  0.77081560  0.85650356     0.18000
H4365       H  0.51942827  0.75746205  0.90881917     0.18000
F4366       F  0.47295115  0.72177332  0.89353623    -0.19800
C4367       C  0.57784428  0.88348492  0.92852594    -0.21200
C4368       C  0.58835127  0.86250292  0.93278935    -0.09300
C4369       C  0.59277425  0.86015095  0.94735313     0.29600
C4370       C  0.58649474  0.87828212  0.95743301    -0.21200
C4371       C  0.57590521  0.89928586  0.95319757    -0.09300
C4372       C  0.57179844  0.90184516  0.93859250     0.29600
F4373       F  0.56093755  0.92119673  0.93404801    -0.19800
H4374       H  0.57417889  0.88552602  0.91735475     0.18000
H4375       H  0.58988027  0.87582924  0.96859421     0.18000
F4376       F  0.60205683  0.83938142  0.95186431    -0.19800
C4377       C  0.70490667  0.84204984  0.91138299    -0.21200
C4378       C  0.70370657  0.81192315  0.91269652    -0.09300
C4379       C  0.67590298  0.78444036  0.91400915     0.29600
C4380       C  0.65007678  0.78730225  0.91385642    -0.21200
C4381       C  0.65149236  0.81744711  0.91252816    -0.09300
C4382       C  0.67909971  0.84483471  0.91128464     0.29600
F4383       F  0.68105682  0.87413727  0.90951027    -0.19800
H4384       H  0.72588942  0.86362028  0.91033060     0.18000
H4385       H  0.62887181  0.76593582  0.91481093     0.18000
F4386       F  0.67342913  0.75473172  0.91508682    -0.19800
C4387       C  0.78581444  0.75095632  0.91990637    -0.21200
C4388       C  0.75877919  0.75171397  0.92007162    -0.09300
C4389       C  0.73306421  0.72414474  0.92425684     0.29600
C4390       C  0.73437825  0.69627013  0.92754622    -0.21200
C4391       C  0.76125317  0.69531444  0.92692131    -0.09300
C4392       C  0.78714924  0.72324056  0.92339060     0.29600
F4393       F  0.81382110  0.72379481  0.92328452    -0.19800
H4394       H  0.80610134  0.77181479  0.91697969     0.18000
H4395       H  0.71406645  0.67501686  0.93010095     0.18000
F4396       F  0.70642760  0.72357677  0.92485917    -0.19800
C4397       C  0.83663021  0.63056628  0.89709820    -0.21200
C4398       C  0.82218167  0.62059411  0.88376139    -0.09300
C4399       C  0.79096828  0.60458811  0.88319380     0.29600
C4400       C  0.77497623  0.60215593  0.89551245    -0.21200
C4401       C  0.78986005  0.61572933  0.90840531    -0.09300
C4402       C  0.82062511  0.62861843  0.90930462     0.29600
F4403       F  0.83538565  0.64252560  0.92166272    -0.19800
H4404       H  0.86055604  0.64273388  0.89796450     0.18000
H4405       H  0.75118246  0.59246106  0.89473315     0.18000
F4406       F  0.77595719  0.59376777  0.87064376    -0.19800
C4407       C  0.69668746  0.56120147  0.94307327    -0.21200
C4408       C  0.72078300  0.58853537  0.94905377    -0.09300
C4409       C  0.72223689  0.59454007  0.96380333     0.29600
C4410       C  0.69883807  0.57427332  0.97234166    -0.21200
C4411       C  0.67352572  0.54831213  0.96617198    -0.09300
C4412       C  0.67316501  0.54126686  0.95150925     0.29600
F4413       F  0.64951487  0.51590229  0.94519439    -0.19800
H4414       H  0.69530353  0.55633056  0.93169947     0.18000
H4415       H  0.69967211  0.58014768  0.98359824     0.18000
F4416       F  0.74567088  0.62069014  0.96980542    -0.19800
C4417       C  0.83795792  0.91679084  0.89550577    -0.21200
C4418       C  0.86245249  0.91248069  0.89210760    -0.09300
C4419       C  0.85938591  0.88132015  0.89203676     0.29600
C4420       C  0.83291852  0.85543696  0.89629352    -0.21200
C4421       C  0.80889504  0.86003097  0.90051706    -0.09300
C4422       C  0.81139476  0.89092505  0.89963443     0.29600
F4423       F  0.78887864  0.89673200  0.90351062    -0.19800
H4424       H  0.83994110  0.94063605  0.89583735     0.18000
H4425       H  0.83146460  0.83186328  0.89653447     0.18000
F4426       F  0.88233253  0.87612052  0.88830890    -0.19800
C4427       C  0.91610055  0.52989439  0.86568227    -0.21200
C4428       C  0.91964693  0.53344653  0.88050297    -0.09300
C4429       C  0.92351049  0.56206587  0.88724400     0.29600
C4430       C  0.92340468  0.58649690  0.87927116    -0.21200
C4431       C  0.91933766  0.58293950  0.86439822    -0.09300
C4432       C  0.91603643  0.55431116  0.85765699     0.29600
F4433       F  0.91208066  0.54938568  0.84336449    -0.19800
H4434       H  0.91310917  0.50796313  0.86032303     0.18000
H4435       H  0.92581033  0.60795173  0.88485220     0.18000
F4436       F  0.92597113  0.56578904  0.90161982    -0.19800
C4437       C  0.98688194  0.98311634  0.91528459    -0.21200
C4438       C  0.95722208  0.97619607  0.91622553    -0.09300
C4439       C  0.94332474  0.96950872  0.92946706     0.29600
C4440       C  0.95862917  0.96920027  0.94154257    -0.21200
C4441       C  0.98828855  0.97576120  0.94077444    -0.09300
C4442       C  0.00241408  0.98282637  0.92747401     0.29600
F4443       F  0.03096284  0.98905517  0.92617190    -0.19800
H4444       H  0.99771555  0.98795986  0.90509019     0.18000
H4445       H  0.95981350  0.50405443  0.95482626     0.18000
F4446       F  0.92909825  0.50776124  0.93382691    -0.19800
C4447       C  0.77878681  0.62497619  0.10751386    -0.21200
C4448       C  0.80161296  0.61689923  0.10539537    -0.09300
C4449       C  0.79606235  0.58548702  0.10819408     0.29600
C4450       C  0.76739778  0.56201231  0.11155880    -0.21200
C4451       C  0.74402402  0.56956704  0.11222092    -0.09300
C4452       C  0.75032129  0.60164686  0.11090945     0.29600
F4453       F  0.72848952  0.61000952  0.11199807    -0.19800
H4454       H  0.78257146  0.64917066  0.10580545     0.18000
H4455       H  0.76301279  0.53738441  0.11249799     0.18000
F4456       F  0.81747555  0.57669169  0.10645781    -0.19800
C4457       C  0.67597086  0.96789871  0.13851977    -0.21200
C4458       C  0.67269792  0.96720848  0.12373444    -0.09300
C4459       C  0.66812527  0.93961679  0.11574563     0.29600
C4460       C  0.66886033  0.91403652  0.12242403    -0.21200
C4461       C  0.67399333  0.91549326  0.13715258    -0.09300
C4462       C  0.67635934  0.94221299  0.14524064     0.29600
F4463       F  0.68139853  0.94484063  0.15949241    -0.19800
H4464       H  0.67957185  0.98903653  0.14479231     0.18000
H4465       H  0.66683975  0.89375680  0.11596388     0.18000
F4466       F  0.66542856  0.93849213  0.10136262    -0.19800
C4467       C  0.66336706  0.01950879  0.07132748    -0.21200
C4468       C  0.64929174  0.01800558  0.08423471    -0.09300
C4469       C  0.62107121  0.49997056  0.08290216     0.29600
C4470       C  0.60681635  0.49701128  0.06986428    -0.21200
C4471       C  0.61847827  0.00798060  0.05825706    -0.09300
C4472       C  0.64824481  0.01432243  0.05848539     0.29600
F4473       F  0.66280038  0.01482632  0.04636622    -0.19800
H4474       H  0.68613269  0.02403600  0.07121514     0.18000
H4475       H  0.58297842  0.48708402  0.06971075     0.18000
F4476       F  0.60470553  0.49088699  0.09486903    -0.19800
C4477       C  0.81990236  0.72936406  0.06368153    -0.21200
C4478       C  0.84498492  0.75940937  0.06226700    -0.09300
C4479       C  0.87297881  0.76309157  0.06605828     0.29600
C4480       C  0.87534196  0.73783535  0.07217992    -0.21200
C4481       C  0.84990801  0.70866212  0.07471755    -0.09300
C4482       C  0.82222923  0.70418961  0.06982983     0.29600
F4483       F  0.79718746  0.67587447  0.07139387    -0.19800
H4484       H  0.79819265  0.72592249  0.06069317     0.18000
H4485       H  0.89692277  0.74186586  0.07573774     0.18000
F4486       F  0.89774811  0.79190249  0.06508373    -0.19800
C4487       C  0.80697117  0.84958105  0.10405284    -0.21200
C4488       C  0.77669188  0.82837564  0.10546048    -0.09300
C4489       C  0.76049842  0.80845982  0.09387225     0.29600
C4490       C  0.77495015  0.80858165  0.08125426    -0.21200
C4491       C  0.80553825  0.82896957  0.08001554    -0.09300
C4492       C  0.82131939  0.85010383  0.09139106     0.29600
F4493       F  0.85105517  0.86919028  0.09069889    -0.19800
H4494       H  0.81966465  0.86514292  0.11292983     0.18000
H4495       H  0.76264738  0.79159886  0.07270243     0.18000
F4496       F  0.73129723  0.78734610  0.09512608    -0.19800
C4497       C  0.93235564  0.91823336  0.04430551    -0.21200
C4498       C  0.93556179  0.91487572  0.02960864    -0.09300
C4499       C  0.91298283  0.88851647  0.02197699     0.29600
C4500       C  0.88813253  0.86592414  0.02897137    -0.21200
C4501       C  0.88530758  0.86899831  0.04365359    -0.09300
C4502       C  0.90749284  0.89542068  0.05129807     0.29600
F4503       F  0.90607318  0.89792450  0.06565228    -0.19800
H4504       H  0.94949522  0.93802385  0.05046199     0.18000
H4505       H  0.87152703  0.84527244  0.02300825     0.18000
F4506       F  0.91572187  0.88328897  0.00792889    -0.19800
C4507       C  0.90921961  0.63252204  0.09729577    -0.21200
C4508       C  0.90857030  0.66116325  0.09435718    -0.09300
C4509       C  0.93549661  0.68895989  0.09171835     0.29600
C4510       C  0.96215052  0.68782074  0.09179211    -0.21200
C4511       C  0.96259337  0.65898296  0.09417952    -0.09300
C4512       C  0.93594812  0.63127394  0.09700089     0.29600
F4513       F  0.93578237  0.60303980  0.09937734    -0.19800
H4514       H  0.88890419  0.61078868  0.09931968     0.18000
H4515       H  0.98249208  0.70936158  0.08954438     0.18000
F4516       F  0.93621289  0.71731202  0.08894907    -0.19800
C4517       C  0.57001406  0.70526576  0.12010967    -0.21200
C4518       C  0.57324716  0.70645136  0.10532738    -0.09300
C4519       C  0.60029002  0.72879386  0.09954802     0.29600
C4520       C  0.62393259  0.74908655  0.10853541    -0.21200
C4521       C  0.62100664  0.74709707  0.12336846    -0.09300
C4522       C  0.59359111  0.72524414  0.12908089     0.29600
F4523       F  0.58938994  0.72327866  0.14334001    -0.19800
H4524       H  0.54928984  0.68825868  0.12473085     0.18000
H4525       H  0.64472396  0.76586502  0.10390167     0.18000
F4526       F  0.60373900  0.73117081  0.08525824    -0.19800
C4527       C  0.51952658  0.56472820  0.05809276    -0.21200
C4528       C  0.54174499  0.57881496  0.04791617    -0.09300
C4529       C  0.55989764  0.61235434  0.04836411     0.29600
C4530       C  0.55537103  0.63139981  0.05856403    -0.21200
C4531       C  0.53285927  0.61746728  0.06855676    -0.09300
C4532       C  0.51501252  0.58388536  0.06833182     0.29600
F4533       F  0.98496483  0.57254339  0.07701885    -0.19800
H4534       H  0.50534698  0.53894069  0.05798174     0.18000
H4535       H  0.56933437  0.65721854  0.05856917     0.18000
F4536       F  0.58238315  0.62676584  0.03909356    -0.19800
loop_ 
_geom_bond_atom_site_label_1 
_geom_bond_atom_site_label_2 
_geom_bond_distance 
_geom_bond_site_symmetry_2 
_ccdc_geom_bond_type 
C1            C2   1.399       .  A
C1            C6   1.406       .  A
C1         C1116   1.479       .  S
C2            C3   1.398       .  A
C2            H7   1.085       .  S
C3            C4   1.401   1_455  A
C3         C1129   1.469       .  S
C4            C5   1.404       .  A
C4         H2276   1.084       .  S
C5            C6   1.409   1_655  A
C5         C3377   1.482       .  S
C6            H9   1.084       .  S
H8         C2272   1.084       .  S
C10          C11   1.403       .  A
C10          C15   1.401       .  A
C10        C1099   1.464       .  S
C11          C12   1.402       .  A
C11          H16   1.084       .  S
C12          C13   1.398       .  A
C12        C1089   1.471       .  S
C13          C14   1.401       .  A
C13          H17   1.085       .  S
C14          C15   1.399       .  A
C14        C1076   1.477       .  S
C15          H18   1.084       .  S
C19          C24   1.402       .  A
C19        C1154   1.403       .  A
C19        C1066   1.482       .  S
C20          C21   1.400       .  A
C20        C1153   1.403       .  A
C20          H25   1.084       .  S
C21          C22   1.396       .  A
C21        C1049   1.473       .  S
C22        C1157   1.402   1_545  A
C22          H26   1.084       .  S
C23          C24   1.407       .  A
C23        C1156   1.406       .  A
C23        C1056   1.478       .  S
C24          H27   1.084       .  S
C28        C1106   1.486       .  S
C28          N29   1.359       .  A
C28          N33   1.366       .  A
N29          C30   1.351       .  A
C30        C1079   1.459       .  S
C30          N31   1.349       .  A
N31          C32   1.353       .  A
C32        C1046   1.481       .  S
C32          N33   1.364       .  A
C34          C39   1.407   1_565  A
C34        C1169   1.405       .  A
C34        C1026   1.479   1_565  S
C35          C36   1.402       .  A
C35        C1168   1.406       .  A
C35          H40   1.084       .  S
C36          C37   1.399       .  A
C36        C1016   1.478       .  S
C37          C38   1.398       .  A
C37          H41   1.085       .  S
C38        C1173   1.402       .  A
C38        C1036   1.468       .  S
C39        C1172   1.402   1_545  A
C39          H42   1.083       .  S
C43          C44   1.401       .  A
C43          C48   1.405       .  A
C43        C1006   1.471       .  S
C44          C45   1.396       .  A
C44          H49   1.084       .  S
C45          C46   1.402       .  A
C45         C999   1.464       .  S
C46          C47   1.400       .  A
C46          H50   1.084       .  S
C47          C48   1.401       .  A
C47         C989   1.482       .  S
C48          H51   1.084       .  S
C52         C976   1.481       .  S
C52          N53   1.358       .  A
C52          N57   1.356       .  A
N53          C54   1.360       .  A
C54         C986   1.487       .  S
C54          N55   1.361       .  A
N55          C56   1.360       .  A
C56        C1019   1.485       .  S
C56          N57   1.356       .  A
C58          C59   1.403       .  A
C58          C63   1.407       .  A
C58         C966   1.482       .  S
C59          C60   1.403       .  A
C59          H64   1.084       .  S
C60          C61   1.398       .  A
C60         C959   1.476       .  S
C61          C62   1.400       .  A
C61          H65   1.084       .  S
C62          C63   1.406       .  A
C62         C979   1.478       .  S
C63          H66   1.083       .  S
Zr67         O68   2.441       .  S
Zr67         O70   2.447       .  S
Zr67       O1203   2.427       .  S
Zr67       O2341   2.431   1_455  S
Zr67         O76   2.386       .  S
Zr67         O77   2.406       .  S
Zr67         O78   2.398       .  S
Zr67       O1209   2.383       .  S
O68         H124   0.990       .  S
O68         H132   0.990       .  S
O69       Zr1201   2.425   1_545  S
O69          C89   1.282       .  A
O70          C91   1.286       .  A
O71         Zr81   2.412   1_554  S
O71          C90   1.281       .  A
O72         Zr80   2.404       .  S
O72        C1225   1.280       .  A
O73       Zr2335   2.426       .  S
O73          C90   1.284       .  A
O74         Zr82   2.408   1_554  S
O74          C89   1.279       .  A
O75         Zr80   2.392       .  S
O75         Zr82   2.375   1_554  S
O75       Zr1201   2.383   1_545  S
O76       Zr2349   2.390   1_454  S
O76       Zr1216   2.377       .  S
O76         H111   0.965       .  S
O77         Zr97   2.392   1_554  S
O77       Zr1214   2.399       .  S
O77         H114   0.966       .  S
O78         Zr97   2.389   1_554  S
O78       Zr2349   2.392   1_454  S
Zr79       O1238   2.441       .  S
Zr79         O98   2.443       .  S
Zr79        O106   2.425       .  S
Zr79       O1228   2.418       .  S
Zr79         O87   2.375       .  S
Zr79         O88   2.377       .  S
Zr79       O1219   2.396       .  S
Zr79       O1220   2.409       .  S
Zr80         O92   2.435       .  S
Zr80       O1233   2.435   1_545  S
Zr80         O93   2.418   1_554  S
Zr80         O86   2.391   1_554  S
Zr80       O1211   2.399   1_545  S
Zr80       O1221   2.382   1_544  S
Zr81         O83   2.435       .  S
Zr81        O105   2.437       .  S
Zr81        O107   2.414       .  S
Zr81       O2344   2.387   1_556  S
Zr81       O2346   2.387   1_556  S
Zr81       O3487   2.383       .  S
Zr81       O2356   2.393       .  S
Zr82        O108   2.435       .  S
Zr82        O109   2.436       .  S
Zr82         O84   2.436   1_556  S
Zr82         O85   2.390       .  S
Zr82         O86   2.389       .  S
Zr82       O1210   2.381   1_556  S
O83         H120   0.990       .  S
O84         H115   0.990       .  S
O84         H129   0.990       .  S
O85       Zr1213   2.396   1_545  S
O85       Zr3483   2.381   1_445  S
O86       Zr1213   2.401   1_545  S
O86         H112   0.965       .  S
O87         Zr97   2.370       .  S
O87       Zr1214   2.393   1_556  S
O88         Zr97   2.383       .  S
O88       Zr2349   2.392   1_455  S
O88         H113   0.957       .  S
C89        C1126   1.473       .  S
C90        C1096   1.473       .  S
C91        C1069   1.489       .  S
C91        O1206   1.283       .  A
O92         H128   0.990       .  S
O93          C95   1.282       .  A
O94       Zr1213   2.426   1_545  S
O94          C95   1.282       .  A
C95        C1009   1.473       .  S
O96         Zr97   2.433   1_554  S
O96         H125   0.990       .  S
Zr97        O100   2.436   1_556  S
Zr97        O101   2.437       .  S
Zr97        O102   2.416       .  S
O98         C103   1.285       .  A
O99       Zr1214   2.436       .  S
O99         H131   0.989       .  S
O99        H1250   0.990       .  S
O100        H117   0.991       .  S
O101        H121   0.990       .  S
O101        H130   0.990   1_455  S
O102        C103   1.281       .  A
C103        C969   1.485       .  S
O104      Zr1213   2.439   1_545  S
O104        H123   0.990       .  S
O104        H127   0.990       .  S
O105        H119   0.990       .  S
O105        H126   0.990       .  S
O106        C110   1.283       .  A
O107       C2378   1.282       .  A
O108        H118   0.990       .  S
O109        H122   0.990       .  S
C110       C3307   1.478   1_455  S
C110       O2375   1.284   1_455  A
H116       O1233   0.989   1_545  S
C133        C134   1.409       .  A
C133        C138   1.407       .  A
C133        C936   1.482       .  S
C134        C135   1.405       .  A
C134        H139   1.083       .  S
C135        C136   1.397       .  A
C135        C949   1.475       .  S
C136        C137   1.397       .  A
C136        H140   1.084       .  S
C137        C138   1.401       .  A
C137        C926   1.479       .  S
C138        H141   1.084       .  S
C142        C143   1.407       .  A
C142        C147   1.409       .  A
C142       C2050   1.486   1_545  S
C143        C144   1.404       .  A
C143        H148   1.083       .  S
C144        C145   1.397       .  A
C144        C906   1.477       .  S
C145        C146   1.399       .  A
C145        H149   1.084       .  S
C146        C147   1.404       .  A
C146        C896   1.480       .  S
C147        H150   1.083   1_545  S
C151        C152   1.408       .  A
C151        C156   1.408       .  A
C151        C876   1.480       .  S
C152        C153   1.399       .  A
C152        H157   1.083       .  S
C153        C154   1.397       .  A
C153        C886   1.468       .  S
C154        C155   1.398       .  A
C154       H2426   1.084       .  S
C155        C156   1.403       .  A
C155        C869   1.484       .  S
C156        H159   1.083       .  S
H158       C2422   1.084       .  S
C160        C899   1.479       .  S
C160        N161   1.358       .  A
C160        N165   1.358       .  A
N161        C162   1.360       .  A
C162       C3197   1.482   1_445  S
C162        N163   1.358       .  A
N163        C164   1.357       .  A
C164        C866   1.484       .  S
C164        N165   1.357       .  A
Zr166       O167   2.438       .  S
Zr166       O168   2.433       .  S
Zr166       O169   2.432       .  S
Zr166       O172   2.416       .  S
Zr166       O174   2.378       .  S
Zr166       O175   2.383       .  S
Zr166       O176   2.405       .  S
Zr166       O177   2.399       .  S
O167        H223   0.990       .  S
O167        H231   0.991       .  S
O168        C188   1.283       .  A
O169        C190   1.283       .  A
O170       Zr180   2.431       .  S
O170        C189   1.285       .  A
O171       Zr179   2.428       .  S
O171        C190   1.284       .  A
O172        C189   1.282       .  A
O173       Zr181   2.424       .  S
O173        C188   1.282       .  A
O174       Zr179   2.402       .  S
O174       Zr181   2.381       .  S
O175       Zr180   2.395       .  S
O175       Zr181   2.374       .  S
O175        H210   0.971       .  S
O176       Zr179   2.404       .  S
O176       Zr196   2.387       .  S
O176        H213   0.964       .  S
O177       Zr180   2.394       .  S
O177       Zr196   2.389       .  S
Zr178       O203   2.442       .  S
Zr178       O197   2.437       .  S
Zr178       O205   2.417       .  S
Zr178       O193   2.406       .  S
Zr178       O184   2.404       .  S
Zr178       O185   2.409       .  S
Zr178       O186   2.373       .  S
Zr178       O187   2.374       .  S
Zr179       O198   2.439       .  S
Zr179       O191   2.435       .  S
Zr179       O192   2.442       .  S
Zr179       O185   2.393       .  S
Zr179       O186   2.394       .  S
Zr180       O182   2.436       .  S
Zr180       O204   2.437       .  S
Zr180       O206   2.435       .  S
Zr180       O184   2.395       .  S
Zr180       O187   2.398       .  S
Zr181       O207   2.435       .  S
Zr181       O208   2.437       .  S
Zr181       O183   2.437       .  S
Zr181       O184   2.400       .  S
Zr181       O185   2.387       .  S
O182       H2487   0.990       .  S
O183        H214   0.991       .  S
O183        H228   0.990       .  S
O185        H211   0.967       .  S
O186       Zr196   2.378       .  S
O187       Zr196   2.381       .  S
O187        H212   0.963       .  S
C188        C939   1.491       .  S
C189        C889   1.482       .  S
C190        C909   1.484       .  S
O191        H227   0.990       .  S
O192        C194   1.286       .  A
O193        C194   1.279       .  A
C194        C996   1.478       .  S
O195       Zr196   2.438       .  S
O195        H224   0.991       .  S
Zr196       O199   2.437       .  S
Zr196       O200   2.439       .  S
Zr196       O201   2.405       .  S
O197        C202   1.284       .  A
O198        H215   0.991       .  S
O198        H230   0.991       .  S
O199        H216   0.990       .  S
O200        H220   0.990       .  S
O200        H229   0.990       .  S
O201        C202   1.278       .  A
C202       C1029   1.486       .  S
O203        H222   0.990       .  S
O203        H226   0.990       .  S
O204        H225   0.990       .  S
O204       H2486   0.990       .  S
O205        C209   1.280       .  A
O206        C209   1.284       .  A
O207        H217   0.991       .  S
O208        H221   0.991       .  S
C209        C956   1.478       .  S
H218       O2472   0.990       .  S
H219       O2450   0.990       .  S
C232        C233   1.406       .  A
C232        C237   1.403       .  A
C232        C856   1.482       .  S
C233        C234   1.406       .  A
C233        H238   1.083       .  S
C234        C235   1.403       .  A
C234        C836   1.483       .  S
C235        C236   1.400       .  A
C235        H239   1.084       .  S
C236        C237   1.401       .  A
C236        C846   1.468       .  S
C237        H240   1.084       .  S
C241        C242   1.405       .  A
C241        C246   1.407       .  A
C241        C816   1.487       .  S
C242        C243   1.404       .  A
C242        H247   1.084       .  S
C243        C244   1.398       .  A
C243        C809   1.480       .  S
C244        C245   1.404       .  A
C244        H248   1.084       .  S
C245        C246   1.404       .  A
C245        C829   1.477       .  S
C246        H249   1.083       .  S
C250        C251   1.407       .  A
C250        C255   1.404       .  A
C250       C1920   1.472   1_545  S
C251        C252   1.403       .  A
C251        H256   1.084       .  S
C252        C253   1.403       .  A
C252        C776   1.483       .  S
C253        C254   1.398       .  A
C253       H2525   1.084       .  S
C254        C255   1.398       .  A
C254        C796   1.474       .  S
C255       H1392   1.084   1_545  S
H257       C2521   1.085       .  S
H258       C1389   1.084       .  S
C259        C839   1.482       .  S
C259        N260   1.365       .  A
C259        N264   1.365       .  A
N260        C261   1.357       .  A
C261        C779   1.486       .  S
C261        N262   1.351       .  A
N262        C263   1.352       .  A
C263       C3074   1.480       .  S
C263        N264   1.360       .  A
Zr265       O266   2.441       .  S
Zr265       O267   2.436       .  S
Zr265       O268   2.430       .  S
Zr265       O271   2.412       .  S
Zr265       O273   2.379       .  S
Zr265       O274   2.382       .  S
Zr265       O275   2.403       .  S
Zr265       O276   2.398       .  S
O266        H322   0.990       .  S
O266        H330   0.991       .  S
O267        C287   1.284       .  A
O268        C289   1.282       .  A
O269       Zr279   2.423       .  S
O269        C288   1.283       .  A
O270       Zr278   2.431       .  S
O270        C289   1.286       .  A
O271        C288   1.282       .  A
O272       Zr280   2.403       .  S
O272        C287   1.279       .  A
O273       Zr278   2.392       .  S
O273       Zr280   2.380       .  S
O274       Zr279   2.385       .  S
O274       Zr280   2.374       .  S
O274        H309   0.966       .  S
O275       Zr278   2.393       .  S
O275       Zr295   2.394       .  S
O275        H312   0.966       .  S
O276       Zr279   2.390       .  S
O276       Zr295   2.392       .  S
Zr277       O302   2.445       .  S
Zr277       O296   2.426       .  S
Zr277       O304   2.447       .  S
Zr277       O292   2.431       .  S
Zr277       O283   2.399       .  S
Zr277       O284   2.402       .  S
Zr277       O285   2.383       .  S
Zr277       O286   2.377       .  S
Zr278       O297   2.435       .  S
Zr278       O290   2.436       .  S
Zr278       O291   2.420       .  S
Zr278       O284   2.400       .  S
Zr278       O285   2.390       .  S
Zr279       O281   2.435       .  S
Zr279       O303   2.436       .  S
Zr279       O305   2.423       .  S
Zr279       O283   2.392       .  S
Zr279       O286   2.384       .  S
Zr280       O306   2.435       .  S
Zr280       O307   2.436       .  S
Zr280       O282   2.438       .  S
Zr280       O283   2.397       .  S
Zr280       O284   2.379       .  S
O281        H318   0.990       .  S
O282        H313   0.990       .  S
O282        H327   0.990       .  S
O284        H310   0.967       .  S
O285       Zr295   2.375       .  S
O286       Zr295   2.374       .  S
O286        H311   0.966       .  S
C287        C919   1.472       .  S
C288        C879   1.469       .  S
C289        C946   1.486       .  S
O290        H326   0.991       .  S
O291        C293   1.283       .  A
O292        C293   1.285       .  A
C293        C789   1.476       .  S
O294       Zr295   2.440       .  S
O294        H323   0.991       .  S
Zr295       O298   2.438       .  S
Zr295       O299   2.440       .  S
Zr295       O300   2.426       .  S
O296        C301   1.284       .  A
O297        H314   0.990       .  S
O297        H329   0.989       .  S
O298        H315   0.989       .  S
O299        H319   0.989       .  S
O299        H328   0.990       .  S
O300        C301   1.283       .  A
C301        C849   1.487       .  S
O302        H321   0.990       .  S
O302        H325   0.990       .  S
O303        H317   0.990       .  S
O303        H324   0.990       .  S
O304        C308   1.288       .  A
O305        C308   1.283       .  A
O306        H316   0.991       .  S
O307        H320   0.989       .  S
C308        C819   1.492       .  S
C331        C332   1.405       .  A
C331        C336   1.403       .  A
C331        C766   1.480       .  S
C332        C333   1.403       .  A
C332        H337   1.084       .  S
C333        C334   1.401       .  A
C333        C746   1.478       .  S
C334        C335   1.402       .  A
C334        H338   1.084       .  S
C335        C336   1.401       .  A
C335        C759   1.473       .  S
C336        H339   1.084       .  S
C340        C345   1.405       .  A
C340       C2609   1.406       .  A
C340        C726   1.484       .  S
C341        C342   1.401       .  A
C341       C2608   1.406       .  A
C341        H346   1.084       .  S
C342        C343   1.397       .  A
C342        C716   1.478       .  S
C343        C344   1.404       .  A
C343        H347   1.084       .  S
C344       C2613   1.409       .  A
C344        C739   1.483       .  S
C345       C2612   1.407       .  A
C345        H348   1.084       .  S
C349        C350   1.407       .  A
C349        C354   1.402   1_545  A
C349        C696   1.476       .  S
C350        C351   1.409       .  A
C350        H355   1.083       .  S
C351       C1486   1.403   1_545  A
C351        C706   1.487       .  S
C352        C353   1.404       .  A
C352       C1485   1.400       .  A
C352        H356   1.084       .  S
C353       C1488   1.400       .  A
C353        C686   1.481       .  S
C354       C1487   1.398       .  A
C354        H357   1.084       .  S
C358        C749   1.480       .  S
C358        N359   1.362       .  A
C358        N363   1.364       .  A
N359        C360   1.356       .  A
C360        C719   1.472       .  S
C360        N361   1.351       .  A
N361        C362   1.353       .  A
C362        C689   1.480       .  S
C362        N363   1.360       .  A
Zr364      O1499   2.442       .  S
Zr364       O366   2.447       .  S
Zr364       O370   2.443       .  S
Zr364      O1501   2.450   1_545  S
Zr364       O372   2.379       .  S
Zr364       O373   2.387       .  S
Zr364       O375   2.406       .  S
Zr364      O1508   2.420   1_545  S
O365      Zr1498   2.444       .  S
O365        H421   0.991       .  S
O365        H429   0.991       .  S
O366        C386   1.285       .  A
O367      Zr1498   2.443       .  S
O367        C388   1.285       .  A
O368       Zr378   2.415       .  S
O368        C387   1.282       .  A
O369      Zr1511   2.432       .  S
O369        C388   1.285       .  A
O370        C387   1.285       .  A
O371       Zr379   2.408       .  S
O371        C386   1.279       .  A
O372       Zr377   2.395       .  S
O372       Zr379   2.380       .  S
O373       Zr378   2.402       .  S
O373       Zr379   2.380       .  S
O373        H408   0.957       .  S
O374       Zr394   2.381       .  S
O374      Zr1498   2.411       .  S
O374      Zr1511   2.400       .  S
O374        H411   0.963       .  S
O375       Zr378   2.388       .  S
O375      Zr1528   2.389   1_545  S
Zr376       O401   2.442       .  S
Zr376       O395   2.447   1_545  S
Zr376       O403   2.452       .  S
Zr376       O391   2.440       .  S
Zr376       O382   2.401       .  S
Zr376       O383   2.412       .  S
Zr376       O384   2.383   1_545  S
Zr376       O385   2.385       .  S
Zr377       O389   2.437       .  S
Zr377      O1530   2.436   1_545  S
Zr377       O390   2.423       .  S
Zr377      O1503   2.429   1_545  S
Zr377       O383   2.395       .  S
Zr377       O384   2.398   1_545  S
Zr377      O1508   2.405   1_545  S
Zr378       O402   2.436       .  S
Zr378      O2648   2.437   1_455  S
Zr378       O404   2.425       .  S
Zr378       O382   2.391       .  S
Zr378       O385   2.393       .  S
Zr379       O405   2.435       .  S
Zr379       O406   2.437       .  S
Zr379       O381   2.439       .  S
Zr379       O382   2.389       .  S
Zr379       O383   2.386       .  S
O380      Zr2646   2.437       .  S
O380        H417   0.990       .  S
O381        H412   0.990       .  S
O381        H426   0.991       .  S
O383        H409   0.964       .  S
O384      Zr1528   2.383       .  S
O385      Zr1528   2.381   1_545  S
O385        H410   0.967   1_445  S
C386        C859   1.481       .  S
C387        C799   1.469       .  S
C388        C826   1.482       .  S
O389        H425   0.990       .  S
O390        C392   1.282       .  A
O391        C392   1.284       .  A
C392        C709   1.463       .  S
O393      Zr2662   2.438       .  S
O393        H422   0.990       .  S
Zr394       O397   2.439       .  S
Zr394      O2661   2.439       .  S
Zr394      O2666   2.437   1_455  S
Zr394      O2667   2.406   1_455  S
Zr394      O1509   2.388       .  S
Zr394      O1518   2.380       .  S
Zr394      O1519   2.380       .  S
O395       C1534   1.285   1_455  A
O396      Zr1511   2.437       .  S
O396        H413   0.990       .  S
O396        H428   0.990       .  S
O397       H2682   0.990       .  S
O398      Zr2662   2.439       .  S
O398        H418   0.990       .  S
O398        H427   0.990       .  S
O399      Zr2662   2.400       .  S
O399       C2668   1.277       .  A
C400       C3037   1.480       .  S
C400       O1529   1.287   1_655  A
C400       O2667   1.279       .  A
O401        H420   0.990       .  S
O401        H424   0.991       .  S
O402        H416   0.990       .  S
O402        H423   0.991       .  S
O403        C407   1.286       .  A
O404        C407   1.283       .  A
O405        H415   0.990       .  S
O406        H419   0.990       .  S
C407        C736   1.483       .  S
H414       O2665   0.991       .  S
C430        C431   1.404       .  A
C430        C435   1.410       .  A
C430        C669   1.490       .  S
C431       C1566   1.399       .  A
C431        H436   1.084       .  S
C432        C433   1.404       .  A
C432       C1565   1.406       .  A
C432        C679   1.483       .  S
C433       C1568   1.403       .  A
C433        H437   1.083       .  S
C434        C435   1.408       .  A
C434       C1567   1.401       .  A
C434        C656   1.481       .  S
C435        H438   1.083       .  S
C439        C440   1.401       .  A
C439        C444   1.399       .  A
C439        C646   1.475       .  S
C440        C441   1.402       .  A
C440        H445   1.084       .  S
C441        C442   1.401       .  A
C441        C626   1.479       .  S
C442        C443   1.408       .  A
C442        H446   1.084       .  S
C443        C444   1.403       .  A
C443        C636   1.477       .  S
C444        H447   1.084       .  S
C448        C449   1.407       .  A
C448        C453   1.406       .  A
C448        C609   1.476       .  S
C449        C450   1.404       .  A
C449        H454   1.084       .  S
C450        C451   1.399       .  A
C450        C616   1.476       .  S
C451        C452   1.398       .  A
C451        H455   1.085       .  S
C452        C453   1.401       .  A
C452        C599   1.475       .  S
C453        H456   1.084       .  S
C457       C1793   1.482       .  S
C457        N458   1.365       .  A
C457       N1596   1.359   1_545  A
N458        C459   1.363       .  A
C459        C629   1.484       .  S
C459       N1594   1.356       .  A
N460        C461   1.355       .  A
N460       C1593   1.358       .  A
C461        C596   1.478       .  S
C461        N462   1.357       .  A
N462       C1591   1.360       .  A
Zr463       O464   2.441       .  S
Zr463       O465   2.448       .  S
Zr463       O466   2.419       .  S
Zr463       O469   2.438       .  S
Zr463       O471   2.380       .  S
Zr463       O472   2.378       .  S
Zr463       O473   2.413       .  S
Zr463       O474   2.399       .  S
O464        H520   0.990       .  S
O464        H528   0.990       .  S
O465        C485   1.285       .  A
O466        C487   1.282       .  A
O467       Zr477   2.425       .  S
O467        C486   1.283       .  A
O468       Zr476   2.430       .  S
O468        C487   1.284       .  A
O469        C486   1.284       .  A
O470       Zr478   2.413       .  S
O470        C485   1.279       .  A
O471       Zr476   2.401       .  S
O471       Zr478   2.376       .  S
O472       Zr477   2.389       .  S
O472       Zr478   2.379       .  S
O472        H507   0.964       .  S
O473       Zr476   2.402       .  S
O473       Zr493   2.383       .  S
O473        H510   0.963       .  S
O474       Zr477   2.379       .  S
O474       Zr493   2.390       .  S
Zr475       O500   2.443       .  S
Zr475       O494   2.449       .  S
Zr475       O502   2.431       .  S
Zr475       O490   2.443       .  S
Zr475       O481   2.407       .  S
Zr475       O482   2.411       .  S
Zr475       O483   2.379       .  S
Zr475       O484   2.384       .  S
Zr476       O495   2.435       .  S
Zr476       O488   2.434       .  S
Zr476       O489   2.433       .  S
Zr476       O482   2.397       .  S
Zr476       O483   2.393       .  S
Zr477       O479   2.436       .  S
Zr477       O501   2.436       .  S
Zr477       O503   2.409       .  S
Zr477       O481   2.395       .  S
Zr477       O484   2.396       .  S
Zr478       O504   2.435       .  S
Zr478       O505   2.437       .  S
Zr478       O480   2.439       .  S
Zr478       O481   2.394       .  S
Zr478       O482   2.386       .  S
O479        H516   0.990       .  S
O480        H511   0.990       .  S
O480        H525   0.991       .  S
O482        H508   0.965       .  S
O483       Zr493   2.381       .  S
O484       Zr493   2.377       .  S
O484        H509   0.965       .  S
C485        C666   1.477       .  S
C486        C619   1.470       .  S
C487        C639   1.473       .  S
O488        H524   0.990       .  S
O489        C491   1.286       .  A
O490        C491   1.284       .  A
C491       C1086   1.473       .  S
O492       Zr493   2.438       .  S
O492        H521   0.990       .  S
Zr493       O496   2.438       .  S
Zr493       O497   2.439       .  S
Zr493       O498   2.410       .  S
O494        C499   1.286       .  A
O495        H512   0.990       .  S
O495        H527   0.990       .  S
O496        H513   0.989       .  S
O497        H517   0.990       .  S
O497        H526   0.990       .  S
O498        C499   1.279       .  A
C499       C1119   1.481       .  S
O500        H519   0.990       .  S
O500        H523   0.991       .  S
O501        H515   0.990       .  S
O501        H522   0.990       .  S
O502        C506   1.284       .  A
O503        C506   1.280       .  A
O504        H514   0.992       .  S
O505        H518   0.990       .  S
C506       C1059   1.470       .  S
Zr529       O530   2.441       .  S
Zr529       O531   2.429       .  S
Zr529       O532   2.426       .  S
Zr529       O535   2.420       .  S
Zr529       O537   2.379       .  S
Zr529       O538   2.382       .  S
Zr529       O539   2.400       .  S
Zr529       O540   2.399       .  S
O530        H586   0.990       .  S
O530        H594   0.991       .  S
O531        C551   1.283       .  A
O532        C553   1.283       .  A
O533       Zr543   2.432       .  S
O533        C552   1.285       .  A
O534       Zr542   2.435       .  S
O534        C553   1.285       .  A
O535        C552   1.283       .  A
O536       Zr544   2.423       .  S
O536        C551   1.282       .  A
O537       Zr542   2.392       .  S
O537       Zr544   2.375       .  S
O538       Zr543   2.386       .  S
O538       Zr544   2.375       .  S
O538        H573   0.973       .  S
O539       Zr542   2.399       .  S
O539       Zr559   2.389       .  S
O539        H576   0.970       .  S
O540       Zr543   2.388       .  S
O540       Zr559   2.389       .  S
Zr541       O566   2.439       .  S
Zr541       O560   2.431       .  S
Zr541       O568   2.445       .  S
Zr541       O556   2.428       .  S
Zr541       O547   2.405       .  S
Zr541       O548   2.406       .  S
Zr541       O549   2.378       .  S
Zr541       O550   2.385       .  S
Zr542       O561   2.436       .  S
Zr542       O554   2.436       .  S
Zr542       O555   2.440       .  S
Zr542       O548   2.392       .  S
Zr542       O549   2.387       .  S
Zr543       O545   2.436       .  S
Zr543       O567   2.437       .  S
Zr543       O569   2.424       .  S
Zr543       O547   2.394       .  S
Zr543       O550   2.394       .  S
Zr544       O570   2.435       .  S
Zr544       O571   2.435       .  S
Zr544       O546   2.437       .  S
Zr544       O547   2.399       .  S
Zr544       O548   2.393       .  S
O545        H582   0.991       .  S
O546        H577   0.991       .  S
O546        H591   0.990       .  S
O548        H574   0.969       .  S
O549       Zr559   2.374       .  S
O550       Zr559   2.380       .  S
O550        H575   0.964       .  S
C551        C676   1.475       .  S
C552        C649   1.483       .  S
C553       C2874   1.483       .  S
O554        H590   0.990       .  S
O555        C557   1.288       .  A
O556        C557   1.283       .  A
C557        C729   1.489       .  S
O558       Zr559   2.438       .  S
O558        H587   0.990       .  S
Zr559       O562   2.437       .  S
Zr559       O563   2.439       .  S
Zr559       O564   2.410       .  S
O560        C565   1.283       .  A
O561        H578   0.990       .  S
O561        H593   0.991       .  S
O562        H579   0.990       .  S
O563        H583   0.990       .  S
O563        H592   0.990       .  S
O564        C565   1.280       .  A
C565        C756   1.474       .  S
O566        H585   0.991       .  S
O566        H589   0.989       .  S
O567        H581   0.990       .  S
O567        H588   0.990       .  S
O568        C572   1.287       .  A
O569        C572   1.283       .  A
O570        H580   0.990       .  S
O571        H584   0.990       .  S
C572        C699   1.488       .  S
C595        C596   1.405       .  A
C595        C600   1.398       .  A
C595        H602   1.083       .  S
C596        C597   1.409       .  A
C597        C598   1.396       .  A
C597        F604   1.357       .  S
C598        C599   1.402       .  A
C598        H603   1.084       .  S
C599        C600   1.405       .  A
C600        F601   1.358       .  S
C605        C606   1.406       .  A
C605        C610   1.399       .  A
C605        H612   1.083       .  S
C606        C607   1.410       .  A
C606       C2821   1.480   1_455  S
C607        C608   1.397       .  A
C607        F614   1.358   1_455  S
C608        C609   1.401       .  A
C608        H613   1.083       .  S
C609        C610   1.405       .  A
C610        F611   1.357       .  S
C615        C616   1.402       .  A
C615        C620   1.398       .  A
C615        H622   1.083       .  S
C616        C617   1.408       .  A
C617        C618   1.399       .  A
C617        F624   1.358       .  S
C618        C619   1.401       .  A
C618        H623   1.083       .  S
C619        C620   1.405       .  A
C620        F621   1.358       .  S
C625        C626   1.405       .  A
C625        C630   1.402       .  A
C625        H632   1.083       .  S
C626        C627   1.403       .  A
C627        C628   1.395       .  A
C627        F634   1.358       .  S
C628        C629   1.408       .  A
C628        H633   1.083       .  S
C629        C630   1.408       .  A
C630        F631   1.357       .  S
C635        C636   1.403       .  A
C635        C640   1.396       .  A
C635        H642   1.083       .  S
C636        C637   1.407       .  A
C637        C638   1.392       .  A
C637        F644   1.358       .  S
C638        C639   1.405       .  A
C638        H643   1.084       .  S
C639        C640   1.408       .  A
C640        F641   1.357       .  S
C645        C646   1.402       .  A
C645        C650   1.394       .  A
C645        H652   1.084       .  S
C646        C647   1.403       .  A
C647        C648   1.399       .  A
C647        F654   1.358       .  S
C648        C649   1.410       .  A
C648        H653   1.083       .  S
C649        C650   1.409       .  A
C650        F651   1.357       .  S
C655        C660   1.400       .  A
C655       C4058   1.406   1_455  A
C655        H662   1.083       .  S
C656        C657   1.402       .  A
C656       C4057   1.405       .  A
C657       C2926   1.396       .  A
C657        F664   1.357       .  S
C658        C659   1.406       .  A
C658       C2925   1.396   1_455  A
C658        H663   1.083       .  S
C659       C1794   1.411       .  A
C659       C1591   1.483       .  S
C660       C1793   1.407       .  A
C660        F661   1.357       .  S
C665        C666   1.403       .  A
C665        C670   1.402       .  A
C665        H672   1.083       .  S
C666        C667   1.406       .  A
C667        C668   1.397       .  A
C667        F674   1.358       .  S
C668        C669   1.407       .  A
C668        H673   1.083       .  S
C669        C670   1.410       .  A
C670        F671   1.357       .  S
C675        C676   1.403       .  A
C675        C680   1.395       .  A
C675        H682   1.084       .  S
C676        C677   1.406       .  A
C677        C678   1.400       .  A
C677        F684   1.357       .  S
C678        C679   1.406       .  A
C678        H683   1.083       .  S
C679        C680   1.408       .  A
C680        F681   1.358       .  S
C685        C686   1.408       .  A
C685        C690   1.401       .  A
C685        H692   1.083       .  S
C686        C687   1.403       .  A
C687        C688   1.392       .  A
C687        F694   1.358       .  S
C688        C689   1.407       .  A
C688        H693   1.083       .  S
C689        C690   1.407       .  A
C690        F691   1.357       .  S
C695        C696   1.400       .  A
C695        C700   1.397       .  A
C695        H702   1.084       .  S
C696        C697   1.404       .  A
C697        C698   1.401       .  A
C697        F704   1.358       .  S
C698        C699   1.408       .  A
C698        H703   1.083       .  S
C699        C700   1.413       .  A
C700        F701   1.357       .  S
C705        C706   1.406       .  A
C705        C710   1.398       .  A
C705        H712   1.083       .  S
C706        C707   1.413   1_545  A
C707        C708   1.397       .  A
C707        F714   1.357       .  S
C708        C709   1.397   1_565  A
C708       H1847   1.084       .  S
C709        C710   1.403       .  A
C710        F711   1.358       .  S
H713       C1842   1.083       .  S
C715        C716   1.407       .  A
C715        C720   1.399       .  A
C715        H722   1.083       .  S
C716        C717   1.403       .  A
C717        C718   1.395       .  A
C717        F724   1.357       .  S
C718        C719   1.405       .  A
C718        H723   1.084       .  S
C719        C720   1.404       .  A
C720        F721   1.358       .  S
C725        C726   1.405       .  A
C725        C730   1.406       .  A
C725        H732   1.083       .  S
C726        C727   1.405       .  A
C727        C728   1.392       .  A
C727       F3002   1.357       .  S
C728        C729   1.404       .  A
C728        H733   1.083       .  S
C729        C730   1.415       .  A
C730        F731   1.358       .  S
F734       C2995   1.357       .  S
C735        C736   1.406       .  A
C735        C740   1.397       .  A
C735        H742   1.083       .  S
C736        C737   1.409       .  A
C737       C3006   1.401       .  A
C737       F3012   1.357   1_455  S
C738       C3005   1.398       .  A
C738       C3007   1.404       .  A
C738        H743   1.083       .  S
C739        C740   1.406       .  A
C739       C3006   1.405       .  A
C740        F741   1.358       .  S
F744       C3005   1.357       .  S
C745        C746   1.403       .  A
C745        C750   1.396       .  A
C745        H752   1.083       .  S
C746        C747   1.405       .  A
C747        C748   1.398       .  A
C747        F754   1.358       .  S
C748        C749   1.407       .  A
C748        H753   1.083       .  S
C749        C750   1.408       .  A
C750        F751   1.357       .  S
C755        C756   1.404       .  A
C755        C760   1.392       .  A
C755        H762   1.083       .  S
C756        C757   1.408       .  A
C757        C758   1.400       .  A
C757        F764   1.357       .  S
C758        C759   1.403       .  A
C758        H763   1.083       .  S
C759        C760   1.403       .  A
C760        F761   1.358       .  S
C765        C766   1.401       .  A
C765        C770   1.394       .  A
C765        H772   1.084       .  S
C766        C767   1.409       .  A
C767        C768   1.402       .  A
C767        F774   1.358       .  S
C768        C769   1.405       .  A
C768        H773   1.083       .  S
C769        C770   1.410       .  A
C769       C2668   1.481       .  S
C770        F771   1.357       .  S
C775        C776   1.400       .  A
C775        C780   1.390       .  A
C775       H3050   1.084       .  S
C776        C777   1.410       .  A
C777        C778   1.404       .  A
C777        F784   1.357       .  S
C778        C779   1.408       .  A
C778        H783   1.083       .  S
C779        C780   1.412       .  A
C780        F781   1.357       .  S
H782       C3043   1.084       .  S
C785        C786   1.401       .  A
C785        C790   1.395       .  A
C785       H1926   1.083       .  S
C786        C787   1.403       .  A
C786       C1384   1.471       .  S
C787        C788   1.396       .  A
C787        F794   1.358       .  S
C788        C789   1.407       .  A
C788        H793   1.083       .  S
C789        C790   1.408       .  A
C790        F791   1.358       .  S
H792       C1919   1.084       .  S
C795        C800   1.399       .  A
C795       C3064   1.404   1_455  A
C795        H802   1.083       .  S
C796        C797   1.405       .  A
C796       C3063   1.405       .  A
C797        C798   1.396       .  A
C797        F804   1.358   1_545  S
C798       C3067   1.402       .  A
C798        H803   1.084   1_545  S
C799        C800   1.404       .  A
C799       C3066   1.403   1_455  A
C800        F801   1.357       .  S
C805        C806   1.403       .  A
C805        C810   1.402   1_655  A
C805        H812   1.083       .  S
C806        C807   1.410   1_655  A
C806       C2531   1.477       .  S
C807        C808   1.393       .  A
C807       F3082   1.358       .  S
C808        C809   1.400       .  A
C808        H813   1.084       .  S
C809        C810   1.410       .  A
C810        F811   1.357       .  S
F814       C3075   1.358       .  S
C815        C816   1.403       .  A
C815        C820   1.395       .  A
C815        H822   1.083       .  S
C816        C817   1.407       .  A
C817        C818   1.403       .  A
C817        F824   1.357       .  S
C818        C819   1.409       .  A
C818        H823   1.083       .  S
C819        C820   1.413       .  A
C820        F821   1.358       .  S
C825        C826   1.407       .  A
C825        C830   1.395       .  A
C825        H832   1.083       .  S
C826        C827   1.410       .  A
C827        C828   1.399       .  A
C827        F834   1.357       .  S
C828        C829   1.403       .  A
C828        H833   1.083       .  S
C829        C830   1.404       .  A
C830        F831   1.358       .  S
C835        C836   1.406       .  A
C835        C840   1.401       .  A
C835        H842   1.083       .  S
C836        C837   1.406       .  A
C837        C838   1.395       .  A
C837        F844   1.357       .  S
C838        C839   1.405       .  A
C838        H843   1.083       .  S
C839        C840   1.409       .  A
C840        F841   1.357       .  S
C845        C846   1.398       .  A
C845        C850   1.396       .  A
C845        H852   1.084       .  S
C846        C847   1.400       .  A
C847        C848   1.398       .  A
C847        F854   1.357       .  S
C848        C849   1.410       .  A
C848        H853   1.083       .  S
C849        C850   1.413       .  A
C850        F851   1.357       .  S
C855        C856   1.407       .  A
C855        C860   1.402       .  A
C855        H862   1.083       .  S
C856        C857   1.405       .  A
C857        C858   1.396       .  A
C857        F864   1.358       .  S
C858        C859   1.406       .  A
C858        H863   1.083       .  S
C859        C860   1.407       .  A
C860        F861   1.357       .  S
C865        C866   1.406       .  A
C865        C870   1.396       .  A
C865        H872   1.083   1_455  S
C866        C867   1.410       .  A
C867        C868   1.396       .  A
C867        F874   1.357       .  S
C868        C869   1.404       .  A
C868        H873   1.083       .  S
C869        C870   1.408       .  A
C870        F871   1.358   1_455  S
C875        C876   1.406       .  A
C875        C880   1.397       .  A
C875        H882   1.083       .  S
C876        C877   1.407       .  A
C877        C878   1.394       .  A
C877        F884   1.357       .  S
C878        C879   1.403       .  A
C878        H883   1.084       .  S
C879        C880   1.405       .  A
C880        F881   1.358       .  S
C885        C886   1.401       .  A
C885       C3158   1.400       .  A
C885        H892   1.083       .  S
C886       C3155   1.400   1_455  A
C887        C888   1.394       .  A
C887       C3154   1.401       .  A
C887        F894   1.358       .  S
C888        C889   1.409       .  A
C888        H893   1.082       .  S
C889        C890   1.409       .  A
C890       C3153   1.397       .  A
C890        F891   1.357       .  S
C895        C896   1.403       .  A
C895        C900   1.393       .  A
C895        H902   1.083       .  S
C896        C897   1.405       .  A
C897        C898   1.401       .  A
C897        F904   1.357   1_545  S
C898        C899   1.407       .  A
C898        H903   1.083   1_545  S
C899        C900   1.407       .  A
C900        F901   1.357       .  S
C905        C906   1.400       .  A
C905        C910   1.395       .  A
C905        H912   1.083       .  S
C906        C907   1.406       .  A
C907        C908   1.396       .  A
C907        F914   1.358       .  S
C908        C909   1.406       .  A
C908        H913   1.083       .  S
C909        C910   1.413       .  A
C910        F911   1.355       .  S
C915        C916   1.401       .  A
C915        C920   1.390       .  A
C915       H2056   1.083       .  S
C916        C917   1.409       .  A
C916       C1276   1.478       .  S
C917        C918   1.399       .  A
C917        F924   1.357       .  S
C918        C919   1.403       .  A
C918        H923   1.083       .  S
C919        C920   1.408       .  A
C920        F921   1.358       .  S
H922       C2049   1.083       .  S
C925        C926   1.403       .  A
C925        C930   1.395       .  A
C925        H932   1.083       .  S
C926        C927   1.406       .  A
C927       C2062   1.394       .  A
C927        F934   1.358       .  S
C928        C929   1.406   1_545  A
C928       C2061   1.392   1_545  A
C928        H933   1.083       .  S
C929       C2064   1.408       .  A
C929       C2430   1.478   1_565  S
C930       C2063   1.412       .  A
C930        F931   1.357       .  S
C935        C936   1.402       .  A
C935        C940   1.395       .  A
C935        H942   1.084       .  S
C936        C937   1.406       .  A
C937        C938   1.402       .  A
C937        F944   1.358       .  S
C938        C939   1.410       .  A
C938        H943   1.083       .  S
C939        C940   1.412       .  A
C940        F941   1.357       .  S
C945        C946   1.405       .  A
C945        C950   1.390       .  A
C945        H952   1.083       .  S
C946        C947   1.415       .  A
C947        C948   1.403       .  A
C947        F954   1.357       .  S
C948        C949   1.401       .  A
C948        H953   1.083       .  S
C949        C950   1.404       .  A
C950        F951   1.358       .  S
C955        C960   1.396       .  A
C955       C3224   1.406       .  A
C955       H3230   1.083       .  S
C956       C3223   1.404       .  A
C956       C3225   1.409       .  A
C957        C958   1.393       .  A
C957       C3224   1.411       .  A
C957        F964   1.356   1_455  S
C958        C959   1.400       .  A
C958        H963   1.084       .  S
C959        C960   1.406       .  A
C960        F961   1.357       .  S
H962       C3223   1.083       .  S
C965        C966   1.406       .  A
C965        C970   1.400       .  A
C965        H972   1.083       .  S
C966        C967   1.404       .  A
C967        C968   1.397       .  A
C967        F974   1.358       .  S
C968        C969   1.409       .  A
C968        H973   1.083       .  S
C969        C970   1.408       .  A
C970        F971   1.357       .  S
C975        C976   1.408       .  A
C975        C980   1.396       .  A
C975        H982   1.083       .  S
C976        C977   1.408       .  A
C977        C978   1.397       .  A
C977        F984   1.357       .  S
C978        C979   1.405       .  A
C978        H983   1.083       .  S
C979        C980   1.403       .  A
C980        F981   1.357       .  S
C985        C986   1.408       .  A
C985        C990   1.399       .  A
C985        H992   1.083       .  S
C986        C987   1.410       .  A
C987        C988   1.396       .  A
C987        F994   1.357       .  S
C988        C989   1.403       .  A
C988        H993   1.083       .  S
C989        C990   1.406       .  A
C990        F991   1.358       .  S
C995        C996   1.410       .  A
C995       C1000   1.391       .  A
C995       H1002   1.082       .  S
C996        C997   1.408       .  A
C997        C998   1.398       .  A
C997       F1004   1.357       .  S
C998        C999   1.402       .  A
C998       H1003   1.083       .  S
C999       C1000   1.398       .  A
C1000      F1001   1.358       .  S
C1005      C1006   1.403       .  A
C1005      C1010   1.395       .  A
C1005      H1012   1.083       .  S
C1006      C1007   1.403       .  A
C1007      C1008   1.393       .  A
C1007      F1014   1.358       .  S
C1008      C1009   1.405       .  A
C1008      H1013   1.083       .  S
C1009      C1010   1.408       .  A
C1010      F1011   1.358       .  S
C1015      C1016   1.401       .  A
C1015      C1020   1.395       .  A
C1015      H1022   1.084       .  S
C1016      C1017   1.405       .  A
C1017      C1018   1.398       .  A
C1017      F1024   1.358       .  S
C1018      C1019   1.407       .  A
C1018      H1023   1.083       .  S
C1019      C1020   1.412       .  A
C1020      F1021   1.357       .  S
C1025      C1026   1.401       .  A
C1025      C1030   1.395       .  A
C1025      H1032   1.084   1_545  S
C1026      C1027   1.406       .  A
C1027      C1028   1.399       .  A
C1027      F1034   1.357       .  S
C1028      C1029   1.408       .  A
C1028      H1033   1.083       .  S
C1029      C1030   1.413       .  A
C1030      F1031   1.358       .  S
C1035      C1036   1.401       .  A
C1035      C1040   1.402       .  A
C1035      H1042   1.083       .  S
C1036      C1037   1.400       .  A
C1037      C1038   1.393       .  A
C1037      F2178   1.358       .  S
C1038      C1039   1.408       .  A
C1038      H2177   1.083       .  S
C1039      C1040   1.411       .  A
C1039      C2378   1.483       .  S
C1040      F1041   1.357       .  S
H1043      C2172   1.083       .  S
F1044      C2171   1.358       .  S
C1045      C1046   1.410       .  A
C1045      C1050   1.394       .  A
C1045      H1052   1.083       .  S
C1046      C1047   1.407       .  A
C1047      C1048   1.399       .  A
C1047      F1054   1.357       .  S
C1048      C1049   1.405       .  A
C1048      H1053   1.083       .  S
C1049      C1050   1.400       .  A
C1050      F1051   1.358       .  S
C1055      C1056   1.404       .  A
C1055      C1060   1.395       .  A
C1055      H1062   1.083       .  S
C1056      C1057   1.407       .  A
C1057      C1058   1.393       .  A
C1057      F1064   1.357       .  S
C1058      C1059   1.402       .  A
C1058      H1063   1.084       .  S
C1059      C1060   1.407       .  A
C1060      F1061   1.358       .  S
C1065      C1066   1.401       .  A
C1065      C1070   1.394       .  A
C1065      H1072   1.084       .  S
C1066      C2201   1.406       .  A
C1067      C1068   1.399       .  A
C1067      C2200   1.405       .  A
C1067      F1074   1.357       .  S
C1068      C2203   1.408       .  A
C1068      H1073   1.083       .  S
C1069      C1070   1.411       .  A
C1069      C2202   1.410       .  A
C1070      F1071   1.357       .  S
C1075      C1076   1.405       .  A
C1075      C1080   1.400       .  A
C1075      H1082   1.083       .  S
C1076      C1077   1.410       .  A
C1077      C1078   1.388       .  A
C1077      F1084   1.358       .  S
C1078      C1079   1.396       .  A
C1078      H1083   1.084       .  S
C1079      C1080   1.404       .  A
C1080      F1081   1.357       .  S
C1085      C1086   1.402       .  A
C1085      C1090   1.393       .  A
C1085      H1092   1.084       .  S
C1086      C1087   1.406       .  A
C1087      C1088   1.403       .  A
C1087      F1094   1.357       .  S
C1088      C1089   1.405       .  A
C1088      H1093   1.083       .  S
C1089      C1090   1.403       .  A
C1090      F1091   1.358       .  S
C1095      C1096   1.405       .  A
C1095      C1100   1.393       .  A
C1095      H1102   1.083       .  S
C1096      C1097   1.410       .  A
C1097      C1098   1.395       .  A
C1097      F1104   1.358       .  S
C1098      C1099   1.399       .  A
C1098      H1103   1.083       .  S
C1099      C1100   1.402       .  A
C1100      F1101   1.358       .  S
C1105      C1106   1.408       .  A
C1105      C1110   1.403       .  A
C1105      H1112   1.083       .  S
C1106      C1107   1.412       .  A
C1107      C1108   1.394       .  A
C1107      F1114   1.358       .  S
C1108      C1109   1.401       .  A
C1108      H1113   1.084       .  S
C1109      C1110   1.407       .  A
C1109      C2273   1.482       .  S
C1110      F1111   1.357       .  S
C1115      C1116   1.403       .  A
C1115      C1120   1.395       .  A
C1115      H1122   1.084       .  S
C1116      C1117   1.405       .  A
C1117      C1118   1.402       .  A
C1117      F1124   1.357       .  S
C1118      C1119   1.406       .  A
C1118      H1123   1.083       .  S
C1119      C1120   1.409       .  A
C1120      F1121   1.358       .  S
C1125      C1126   1.406       .  A
C1125      C1130   1.395       .  A
C1125      H1132   1.083       .  S
C1126      C1127   1.408       .  A
C1127      C1128   1.394       .  A
C1127      F1134   1.358       .  S
C1128      C1129   1.402       .  A
C1128      H1133   1.084       .  S
C1129      C1130   1.402       .  A
C1130      F3399   1.357   1_455  S
F1131      C3398   1.357       .  S
C1135      C1136   1.401       .  A
C1135      C1140   1.403       .  A
C1135      C2250   1.476       .  S
C1136      C1137   1.403       .  A
C1136      H1141   1.084       .  S
C1137      C1138   1.405   1_455  A
C1137      C2263   1.481       .  S
C1138      C1139   1.404       .  A
C1138      H3410   1.084       .  S
C1139      C1140   1.403   1_655  A
C1139      C4511   1.478       .  S
C1140      H1143   1.084       .  S
H1142      C3406   1.084       .  S
C1144      C1145   1.406       .  A
C1144      C1149   1.404       .  A
C1144      C2233   1.469       .  S
C1145      C1146   1.402       .  A
C1145      H1150   1.084       .  S
C1146      C1147   1.399       .  A
C1146      C2223   1.475       .  S
C1147      C1148   1.399       .  A
C1147      H1151   1.085       .  S
C1148      C1149   1.398       .  A
C1148      C2210   1.475       .  S
C1149      H1152   1.084       .  S
C1153      C1158   1.402   1_545  A
C1153      C2200   1.475       .  S
C1154      C1155   1.405       .  A
C1154      H1159   1.084       .  S
C1155      C1156   1.397       .  A
C1155      C2183   1.482       .  S
C1156      H1160   1.084       .  S
C1157      C1158   1.401       .  A
C1157      C2190   1.468       .  S
C1158      H1161   1.084       .  S
C1162      C2240   1.479       .  S
C1162      N1163   1.357       .  A
C1162      N1167   1.367       .  A
N1163      C1164   1.350       .  A
C1164      C2213   1.472       .  S
C1164      N1165   1.349       .  A
N1165      C1166   1.355       .  A
C1166      C2180   1.481       .  S
C1166      N1167   1.364       .  A
C1168      C1173   1.406       .  A
C1168      C2160   1.478       .  S
C1169      C1170   1.400       .  A
C1169      H1174   1.084       .  S
C1170      C1171   1.396       .  A
C1170      C2150   1.473       .  S
C1171      C1172   1.395       .  A
C1171      H1175   1.085       .  S
C1172      C2170   1.464       .  S
C1173      H1176   1.084       .  S
C1177      C1178   1.401       .  A
C1177      C1182   1.402       .  A
C1177      C2140   1.465       .  S
C1178      C1179   1.395       .  A
C1178      H1183   1.084       .  S
C1179      C1180   1.399       .  A
C1179      C2133   1.460       .  S
C1180      C1181   1.398       .  A
C1180      H1184   1.085       .  S
C1181      C1182   1.397       .  A
C1181      C2123   1.472       .  S
C1182      H1185   1.084       .  S
C1186      C2110   1.475       .  S
C1186      N1187   1.359       .  A
C1186      N1191   1.356       .  A
N1187      C1188   1.359       .  A
C1188      C2120   1.479       .  S
C1188      N1189   1.355       .  A
N1189      C1190   1.354       .  A
C1190      C2153   1.474       .  S
C1190      N1191   1.354       .  A
C1192      C1193   1.403       .  A
C1192      C1197   1.404       .  A
C1192      C2100   1.480       .  S
C1193      C1194   1.404       .  A
C1193      H1198   1.084       .  S
C1194      C1195   1.398       .  A
C1194      C2093   1.475       .  S
C1195      C1196   1.401       .  A
C1195      H1199   1.084       .  S
C1196      C1197   1.402       .  A
C1196      C2113   1.475       .  S
C1197      H1200   1.083       .  S
Zr1201     O1202   2.442       .  S
Zr1201     O1204   2.439       .  S
Zr1201     O3475   2.438   1_455  S
Zr1201     O1210   2.381   1_565  S
Zr1201     O1211   2.409       .  S
Zr1201     O1212   2.402       .  S
O1202      H1258   0.991       .  S
O1202      H1266   0.990       .  S
O1203      C1223   1.282       .  A
O1204      C1225   1.284   1_565  A
O1205     Zr1215   2.421   1_554  S
O1205      C1224   1.283       .  A
O1206     Zr1214   2.423       .  S
O1207     Zr3469   2.434       .  S
O1207      C1224   1.287       .  A
O1208     Zr1216   2.424       .  S
O1208      C1223   1.282       .  A
O1209     Zr1214   2.391       .  S
O1209     Zr1216   2.377       .  S
O1210     Zr3483   2.386   1_444  S
O1210      H1245   0.965       .  S
O1211     Zr1231   2.391   1_554  S
O1211      H1248   0.967       .  S
O1212     Zr3483   2.391   1_454  S
O1212     Zr1231   2.394   1_554  S
Zr1213     O1232   2.423       .  S
Zr1213     O1240   2.416       .  S
Zr1213     O1221   2.374       .  S
Zr1213     O1222   2.383       .  S
Zr1214     O1226   2.435       .  S
Zr1214     O1227   2.411   1_554  S
Zr1214     O1220   2.396   1_554  S
Zr1215     O1217   2.435       .  S
Zr1215     O1239   2.439       .  S
Zr1215     O1241   2.424       .  S
Zr1215     O3478   2.393   1_566  S
Zr1215     O3480   2.383   1_556  S
Zr1215     O2353   2.384   1_565  S
Zr1215     O3490   2.393       .  S
Zr1216     O1242   2.435   1_554  S
Zr1216     O1243   2.436   1_554  S
Zr1216     O1218   2.437       .  S
Zr1216     O1219   2.394   1_554  S
Zr1216     O1220   2.394   1_554  S
O1217      H1254   0.990       .  S
O1218      H1249   0.990       .  S
O1218      H1263   0.990       .  S
O1219     Zr2349   2.378   1_455  S
O1220      H1246   0.964       .  S
O1221     Zr1231   2.373       .  S
O1222     Zr3483   2.391   1_455  S
O1222     Zr1231   2.381       .  S
O1222      H1247   0.957       .  S
C1223      C2260   1.476       .  S
C1224      C2230   1.485       .  S
C1225      C2203   1.480       .  S
O1226      H1262   0.990       .  S
O1227      C1229   1.281       .  A
O1228      C1229   1.281       .  A
C1229      C2143   1.470       .  S
O1230     Zr1231   2.436   1_554  S
O1230      H1259   0.990       .  S
Zr1231     O1234   2.436   1_556  S
Zr1231     O1235   2.438       .  S
Zr1231     O1236   2.419       .  S
O1232      C1237   1.282       .  A
O1233      H1265   0.990       .  S
O1234      H1251   0.991   1_554  S
O1235      H1255   0.991       .  S
O1235      H1264   0.989       .  S
O1236      C1237   1.281       .  A
C1237      C2103   1.476       .  S
O1238      H1257   0.990       .  S
O1238      H1261   0.990       .  S
O1239      H1253   0.990       .  S
O1239      H1260   0.991       .  S
O1240      C1244   1.281       .  A
O1241      C3512   1.284       .  A
O1242      H1252   0.990   1_556  S
O1243      H1256   0.990       .  S
C1244      C4441   1.479   1_455  S
C1244      O3509   1.282   1_455  A
C1267      C1268   1.407       .  A
C1267      C1272   1.404       .  A
C1267      C2070   1.475       .  S
C1268      C1269   1.406       .  A
C1268      H1273   1.083       .  S
C1269      C1270   1.400       .  A
C1269      C2083   1.480       .  S
C1270      C1271   1.400       .  A
C1270      H1274   1.084       .  S
C1271      C1272   1.399       .  A
C1271      C2060   1.478       .  S
C1272      H1275   1.084       .  S
C1276      C1277   1.404       .  A
C1276      C1281   1.407       .  A
C1277      C1278   1.399       .  A
C1277      H1282   1.084       .  S
C1278      C1279   1.392       .  A
C1278      C2040   1.463       .  S
C1279      C1280   1.395       .  A
C1279      H1283   1.085       .  S
C1280      C1281   1.401       .  A
C1280      C2030   1.467       .  S
C1281      H1284   1.084       .  S
C1285      C1286   1.401       .  A
C1285      C1290   1.405       .  A
C1285      C2010   1.472       .  S
C1286      C1287   1.394       .  A
C1286      H1291   1.084       .  S
C1287      C1288   1.399       .  A
C1287      C2020   1.461       .  S
C1288      C1289   1.401       .  A
C1288      H3560   1.084       .  S
C1289      C1290   1.404       .  A
C1289      C2003   1.485       .  S
C1290      H1293   1.084       .  S
H1292      C3556   1.084       .  S
C1294      C2033   1.472       .  S
C1294      N1295   1.352       .  A
C1294      N1299   1.359       .  A
N1295      C1296   1.350       .  A
C1296      C4331   1.473   1_455  S
C1296      N1297   1.356       .  A
N1297      C1298   1.358       .  A
C1298      C2000   1.483       .  S
C1298      N1299   1.360       .  A
Zr1300     O1301   2.440       .  S
Zr1300     O1302   2.450       .  S
Zr1300     O1303   2.435       .  S
Zr1300     O1306   2.433       .  S
Zr1300     O1308   2.381       .  S
Zr1300     O1309   2.383       .  S
Zr1300     O1310   2.413       .  S
Zr1300     O1311   2.402       .  S
O1301      H1357   0.990       .  S
O1301      H1365   0.991       .  S
O1302      C1322   1.286       .  A
O1303      C1324   1.283       .  A
O1304     Zr1314   2.425       .  S
O1304      C1323   1.283       .  A
O1305     Zr1313   2.421       .  S
O1305      C1324   1.283       .  A
O1306      C1323   1.285       .  A
O1307     Zr1315   2.404       .  S
O1307      C1322   1.278       .  A
O1308     Zr1313   2.398       .  S
O1308     Zr1315   2.382       .  S
O1309     Zr1314   2.399       .  S
O1309     Zr1315   2.385       .  S
O1309      H1344   0.969       .  S
O1310     Zr1313   2.397       .  S
O1310     Zr1330   2.390       .  S
O1310      H1347   0.963       .  S
O1311     Zr1314   2.388       .  S
O1311     Zr1330   2.393       .  S
Zr1312     O1337   2.444       .  S
Zr1312     O1331   2.426       .  S
Zr1312     O1339   2.420       .  S
Zr1312     O1327   2.415       .  S
Zr1312     O1318   2.395       .  S
Zr1312     O1319   2.400       .  S
Zr1312     O1320   2.380       .  S
Zr1312     O1321   2.376       .  S
Zr1313     O1332   2.437       .  S
Zr1313     O1325   2.437       .  S
Zr1313     O1326   2.430       .  S
Zr1313     O1319   2.395       .  S
Zr1313     O1320   2.386       .  S
Zr1314     O1316   2.437       .  S
Zr1314     O1338   2.435       .  S
Zr1314     O1340   2.431       .  S
Zr1314     O1318   2.390       .  S
Zr1314     O1321   2.387       .  S
Zr1315     O1341   2.436       .  S
Zr1315     O1342   2.436       .  S
Zr1315     O1317   2.439       .  S
Zr1315     O1318   2.393       .  S
Zr1315     O1319   2.384       .  S
O1316      H3621   0.990       .  S
O1317      H1348   0.991       .  S
O1317      H1362   0.989       .  S
O1319      H1345   0.970       .  S
O1320     Zr1330   2.372       .  S
O1321     Zr1330   2.371       .  S
O1321      H1346   0.960       .  S
C1322      C2073   1.489       .  S
C1323      C2023   1.487       .  S
C1324      C2043   1.482       .  S
O1325      H1361   0.990       .  S
O1326      C1328   1.285       .  A
O1327      C1328   1.283       .  A
C1328      C2130   1.480       .  S
O1329     Zr1330   2.439       .  S
O1329      H1358   0.990       .  S
Zr1330     O1333   2.438       .  S
Zr1330     O1334   2.438       .  S
Zr1330     O1335   2.427       .  S
O1331      C1336   1.284       .  A
O1332      H1349   0.990       .  S
O1332      H1364   0.991       .  S
O1333      H1350   0.990       .  S
O1334      H1354   0.990       .  S
O1334      H1363   0.990       .  S
O1335      C1336   1.283       .  A
C1336      C2163   1.488       .  S
O1337      H1356   0.991       .  S
O1337      H1360   0.990       .  S
O1338      H3620   0.990       .  S
O1338      H1359   0.991       .  S
O1339      C1343   1.283       .  A
O1340      C1343   1.285       .  A
O1341      H1351   0.988       .  S
O1342      H1355   0.990       .  S
C1343      C2090   1.483       .  S
H1352      O3606   0.990       .  S
H1353      O3584   0.989       .  S
C1366      C1367   1.406       .  A
C1366      C1371   1.407       .  A
C1366      C1990   1.484       .  S
C1367      C1368   1.404       .  A
C1367      H1372   1.084       .  S
C1368      C1369   1.403       .  A
C1368      C1970   1.483       .  S
C1369      C1370   1.404       .  A
C1369      H1373   1.084       .  S
C1370      C1371   1.408       .  A
C1370      C1980   1.484       .  S
C1371      H1374   1.084       .  S
C1375      C1376   1.401       .  A
C1375      C1380   1.403       .  A
C1375      C1950   1.478       .  S
C1376      C1377   1.400       .  A
C1376      H1381   1.085       .  S
C1377      C1378   1.401       .  A
C1377      C1943   1.479       .  S
C1378      C1379   1.409       .  A
C1378      H1382   1.084       .  S
C1379      C1380   1.405       .  A
C1379      C1963   1.479       .  S
C1380      H1383   1.084       .  S
C1384      C1385   1.407       .  A
C1384      C1389   1.403       .  A
C1385      C1386   1.402       .  A
C1385      H1390   1.084       .  S
C1386      C1387   1.400       .  A
C1386      C1910   1.479       .  S
C1387      C1388   1.397       .  A
C1387      H3659   1.085       .  S
C1388      C1389   1.400       .  A
C1388      C1930   1.468       .  S
H1391      C3655   1.085       .  S
C1393      C1973   1.486       .  S
C1393      N1394   1.362       .  A
C1393      N1398   1.365       .  A
N1394      C1395   1.357       .  A
C1395      C1913   1.482       .  S
C1395      N1396   1.354       .  A
N1396      C1397   1.356       .  A
C1397      C4208   1.485       .  S
C1397      N1398   1.362       .  A
Zr1399     O1400   2.439       .  S
Zr1399     O1401   2.426       .  S
Zr1399     O1402   2.426       .  S
Zr1399     O1405   2.418       .  S
Zr1399     O1407   2.378       .  S
Zr1399     O1408   2.380       .  S
Zr1399     O1409   2.399       .  S
Zr1399     O1410   2.398       .  S
O1400      H1456   0.990       .  S
O1400      H1464   0.991       .  S
O1401      C1421   1.283       .  A
O1402      C1423   1.283       .  A
O1403     Zr1413   2.420       .  S
O1403      C1422   1.283       .  A
O1404     Zr1412   2.438       .  S
O1404      C1423   1.287       .  A
O1405      C1422   1.284       .  A
O1406     Zr1414   2.430       .  S
O1406      C1421   1.284       .  A
O1407     Zr1412   2.384       .  S
O1407     Zr1414   2.377       .  S
O1408     Zr1413   2.384       .  S
O1408     Zr1414   2.368       .  S
O1408      H1443   0.968       .  S
O1409     Zr1412   2.390       .  S
O1409     Zr1429   2.386       .  S
O1409      H1446   0.967       .  S
O1410     Zr1413   2.388       .  S
O1410     Zr1429   2.395       .  S
Zr1411     O1436   2.446       .  S
Zr1411     O1430   2.443       .  S
Zr1411     O1438   2.438       .  S
Zr1411     O1426   2.435       .  S
Zr1411     O1417   2.403       .  S
Zr1411     O1418   2.410       .  S
Zr1411     O1419   2.382       .  S
Zr1411     O1420   2.378       .  S
Zr1412     O1431   2.438       .  S
Zr1412     O1424   2.434       .  S
Zr1412     O1425   2.420       .  S
Zr1412     O1418   2.398       .  S
Zr1412     O1419   2.395       .  S
Zr1413     O1415   2.435       .  S
Zr1413     O1437   2.436       .  S
Zr1413     O1439   2.418       .  S
Zr1413     O1417   2.386       .  S
Zr1413     O1420   2.383       .  S
Zr1414     O1440   2.437       .  S
Zr1414     O1441   2.435       .  S
Zr1414     O1416   2.437       .  S
Zr1414     O1417   2.398       .  S
Zr1414     O1418   2.394       .  S
O1415      H1452   0.991       .  S
O1416      H1447   0.991   1_565  S
O1416      H1461   0.990       .  S
O1418      H1444   0.969       .  S
O1419     Zr1429   2.374       .  S
O1420     Zr1429   2.374       .  S
O1420      H1445   0.966       .  S
C1421      C2053   1.477       .  S
C1422      C2013   1.474       .  S
C1423      C2080   1.488       .  S
O1424      H1460   0.990       .  S
O1425      C1427   1.283       .  A
O1426      C1427   1.286       .  A
C1427      C1923   1.476       .  S
O1428     Zr1429   2.439       .  S
O1428      H1457   0.990       .  S
Zr1429     O1432   2.437       .  S
Zr1429     O1433   2.439       .  S
Zr1429     O1434   2.423       .  S
O1430      C1435   1.287       .  A
O1431      H1448   0.990       .  S
O1431      H1463   0.990       .  S
O1432      H1449   0.989       .  S
O1433      H1453   0.990       .  S
O1433      H1462   0.990       .  S
O1434      C1435   1.283       .  A
C1435      C1983   1.486       .  S
O1436      H1455   0.991       .  S
O1436      H1459   0.989       .  S
O1437      H1451   0.990       .  S
O1437      H1458   0.990       .  S
O1438      C1442   1.285       .  A
O1439      C1442   1.282       .  A
O1440      H1450   0.990       .  S
O1441      H1454   0.990       .  S
C1442      C1953   1.487       .  S
C1465      C1466   1.403       .  A
C1465      C1470   1.403       .  A
C1465      C1900   1.472       .  S
C1466      C1467   1.400       .  A
C1466      H1471   1.084       .  S
C1467      C1468   1.403       .  A
C1467      C1880   1.475       .  S
C1468      C1469   1.403       .  A
C1468      H1472   1.084       .  S
C1469      C1470   1.403       .  A
C1469      C1893   1.477       .  S
C1470      H1473   1.084       .  S
C1474      C3743   1.403       .  A
C1474      C1479   1.405       .  A
C1474      C1860   1.481       .  S
C1475      C3742   1.401       .  A
C1475      C1476   1.401       .  A
C1475      H1480   1.084       .  S
C1476      C1477   1.400       .  A
C1476      C1850   1.481       .  S
C1477      C1478   1.407       .  A
C1477      H1481   1.084       .  S
C1478      C3747   1.405       .  A
C1478      C1873   1.478       .  S
C1479      C3746   1.404       .  A
C1479      H1482   1.084       .  S
C1483      C1484   1.401       .  A
C1483      C1488   1.401       .  A
C1483      C1830   1.466       .  S
C1484      C1485   1.403       .  A
C1484      H1489   1.084       .  S
C1485      C1840   1.472       .  S
C1486      C1487   1.401       .  A
C1486      H1490   1.084       .  S
C1487      C1820   1.477       .  S
C1488      H1491   1.084       .  S
C1492      C1883   1.483       .  S
C1492      N1493   1.363       .  A
C1492      N1497   1.361       .  A
N1493      C1494   1.359       .  A
C1494      C1853   1.477       .  S
C1494      N1495   1.354       .  A
N1495      C1496   1.353       .  A
C1496      C1823   1.479       .  S
C1496      N1497   1.358       .  A
Zr1498     O1500   2.442       .  S
Zr1498     O1504   2.435       .  S
Zr1498     O1506   2.381       .  S
Zr1498     O1507   2.384       .  S
Zr1498     O1509   2.403       .  S
O1499      H1555   0.990       .  S
O1499      H1563   0.990   1_545  S
O1500      C1520   1.284       .  A
O1501      C1522   1.287       .  A
O1502     Zr1512   2.410       .  S
O1502      C1521   1.281       .  A
O1503      C1522   1.284       .  A
O1504      C1521   1.283       .  A
O1505     Zr1513   2.425       .  S
O1505      C1520   1.282       .  A
O1506     Zr1511   2.404       .  S
O1506     Zr1513   2.386       .  S
O1507     Zr1512   2.401       .  S
O1507     Zr1513   2.375       .  S
O1507      H1542   0.956       .  S
O1508     Zr1528   2.386       .  S
O1508      H1545   0.964       .  S
O1509     Zr1512   2.387       .  S
Zr1510     O1535   2.443       .  S
Zr1510     O1529   2.452       .  S
Zr1510     O1537   2.445       .  S
Zr1510     O1525   2.434       .  S
Zr1510     O1516   2.406       .  S
Zr1510     O1517   2.416       .  S
Zr1510     O1518   2.377       .  S
Zr1510     O1519   2.382       .  S
Zr1511     O1523   2.434       .  S
Zr1511     O1524   2.431       .  S
Zr1511     O1517   2.397       .  S
Zr1511     O1518   2.394       .  S
Zr1512     O3782   2.437   1_455  S
Zr1512     O1536   2.439       .  S
Zr1512     O1538   2.421       .  S
Zr1512     O1516   2.389       .  S
Zr1512     O1519   2.391       .  S
Zr1513     O1539   2.436       .  S
Zr1513     O1540   2.435       .  S
Zr1513     O1515   2.435       .  S
Zr1513     O1516   2.395       .  S
Zr1513     O1517   2.391       .  S
O1514     Zr3780   2.436       .  S
O1514      H1551   0.989       .  S
O1515      H1546   0.990       .  S
O1515      H1560   0.989       .  S
O1517      H1543   0.963       .  S
O1519      H1544   0.965   1_455  S
C1520      C1993   1.491       .  S
C1521      C1933   1.458       .  S
C1522      C1960   1.480       .  S
O1523      H1559   0.990       .  S
O1524      C1526   1.285       .  A
O1525      C1526   1.283       .  A
C1526      C1843   1.468       .  S
O1527     Zr3796   2.439       .  S
O1527      H1556   0.991       .  S
Zr1528     O3795   2.440       .  S
Zr1528     O1531   2.440       .  S
Zr1528     O3800   2.438   1_455  S
Zr1528     O3801   2.406   1_455  S
O1530      H1547   0.990       .  S
O1530      H1562   0.990       .  S
O1531      H3816   0.990       .  S
O1532     Zr3796   2.440       .  S
O1532      H1552   0.990       .  S
O1532      H1561   0.990       .  S
O1533     Zr3796   2.398       .  S
O1533      C3802   1.277       .  A
C1534      C4171   1.477       .  S
C1534      O3801   1.279       .  A
O1535      H1554   0.990       .  S
O1535      H1558   0.991       .  S
O1536      H1550   0.990       .  S
O1536      H1557   0.990       .  S
O1537      C1541   1.285       .  A
O1538      C1541   1.282       .  A
O1539      H1549   0.990       .  S
O1540      H1553   0.991       .  S
C1541      C1870   1.484       .  S
H1548      O3799   0.990       .  S
C1564      C1565   1.402       .  A
C1564      C1569   1.401   1_545  A
C1564      C1803   1.474   1_545  S
C1565      H1570   1.084       .  S
C1566      C1567   1.400       .  A
C1566      C1813   1.470       .  S
C1567      H1571   1.084       .  S
C1568      C1569   1.403   1_545  A
C1568      C1790   1.481       .  S
C1569      H1572   1.083       .  S
C1573      C1574   1.399       .  A
C1573      C1578   1.399       .  A
C1573      C1780   1.474       .  S
C1574      C1575   1.401       .  A
C1574      H1579   1.084       .  S
C1575      C1576   1.403       .  A
C1575      C1760   1.480       .  S
C1576      C1577   1.409       .  A
C1576      H1580   1.084       .  S
C1577      C1578   1.401       .  A
C1577      C1770   1.474       .  S
C1578      H1581   1.084       .  S
C1582      C1583   1.407       .  A
C1582      C1587   1.406       .  A
C1582      C1743   1.478       .  S
C1583      C1584   1.402       .  A
C1583      H1588   1.084       .  S
C1584      C1585   1.398       .  A
C1584      C1750   1.469       .  S
C1585      C1586   1.399       .  A
C1585      H1589   1.085       .  S
C1586      C1587   1.400       .  A
C1586      C1733   1.477       .  S
C1587      H1590   1.084       .  S
C1591      N1592   1.361       .  A
N1592      C1593   1.359       .  A
C1593      C1763   1.482       .  S
N1594      C1595   1.353   1_545  A
C1595      C1730   1.478       .  S
C1595      N1596   1.354       .  A
Zr1597     O1598   2.442       .  S
Zr1597     O1599   2.440       .  S
Zr1597     O1600   2.442       .  S
Zr1597     O1603   2.442       .  S
Zr1597     O1605   2.378       .  S
Zr1597     O1606   2.387       .  S
Zr1597     O1607   2.411       .  S
Zr1597     O1608   2.397       .  S
O1598      H1654   0.991       .  S
O1598      H1662   0.991       .  S
O1599      C1619   1.284       .  A
O1600      C1621   1.286       .  A
O1601     Zr1611   2.420       .  S
O1601      C1620   1.283       .  A
O1602     Zr1610   2.413       .  S
O1602      C1621   1.281       .  A
O1603      C1620   1.285       .  A
O1604     Zr1612   2.413       .  S
O1604      C1619   1.280       .  A
O1605     Zr1610   2.396       .  S
O1605     Zr1612   2.381       .  S
O1606     Zr1611   2.394       .  S
O1606     Zr1612   2.380       .  S
O1606      H1641   0.967       .  S
O1607     Zr1610   2.397       .  S
O1607     Zr1627   2.380       .  S
O1607      H1644   0.964       .  S
O1608     Zr1611   2.380       .  S
O1608     Zr1627   2.382       .  S
Zr1609     O1634   2.442       .  S
Zr1609     O1628   2.443       .  S
Zr1609     O1636   2.443       .  S
Zr1609     O1624   2.462       .  S
Zr1609     O1615   2.405       .  S
Zr1609     O1616   2.411       .  S
Zr1609     O1617   2.381       .  S
Zr1609     O1618   2.389       .  S
Zr1610     O1629   2.436       .  S
Zr1610     O1622   2.434       .  S
Zr1610     O1623   2.409       .  S
Zr1610     O1616   2.396       .  S
Zr1610     O1617   2.391       .  S
Zr1611     O1613   2.436       .  S
Zr1611     O1635   2.438       .  S
Zr1611     O1637   2.410       .  S
Zr1611     O1615   2.393       .  S
Zr1611     O1618   2.392       .  S
Zr1612     O1638   2.434       .  S
Zr1612     O1639   2.436       .  S
Zr1612     O1614   2.438       .  S
Zr1612     O1615   2.392       .  S
Zr1612     O1616   2.387       .  S
O1613      H1650   0.990       .  S
O1614      H1645   0.990       .  S
O1614      H1659   0.990       .  S
O1616      H1642   0.964       .  S
O1617     Zr1627   2.383       .  S
O1618     Zr1627   2.382       .  S
O1618      H1643   0.964       .  S
C1619      C1800   1.481       .  S
C1620      C1753   1.472       .  S
C1621      C1773   1.477       .  S
O1622      H1658   0.989       .  S
O1623      C1625   1.282       .  A
O1624      C1625   1.288       .  A
C1625      C2220   1.489       .  S
O1626     Zr1627   2.440       .  S
O1626      H1655   0.990       .  S
Zr1627     O1630   2.437       .  S
Zr1627     O1631   2.440       .  S
Zr1627     O1632   2.402       .  S
O1628      C1633   1.285       .  A
O1629      H1646   0.990       .  S
O1629      H1661   0.990       .  S
O1630      H1647   0.990       .  S
O1631      H1651   0.989       .  S
O1631      H1660   0.990       .  S
O1632      C1633   1.278       .  A
C1633      C2253   1.479       .  S
O1634      H1653   0.991       .  S
O1634      H1657   0.990       .  S
O1635      H1649   0.990       .  S
O1635      H1656   0.989       .  S
O1636      C1640   1.286       .  A
O1637      C1640   1.280       .  A
O1638      H1648   0.989       .  S
O1639      H1652   0.990       .  S
C1640      C2193   1.480       .  S
Zr1663     O1664   2.442       .  S
Zr1663     O1665   2.430       .  S
Zr1663     O1666   2.428       .  S
Zr1663     O1669   2.426       .  S
Zr1663     O1671   2.381       .  S
Zr1663     O1672   2.379       .  S
Zr1663     O1673   2.407       .  S
Zr1663     O1674   2.400       .  S
O1664      H1720   0.991       .  S
O1664      H1728   0.991       .  S
O1665      C1685   1.283       .  A
O1666      C1687   1.282       .  A
O1667     Zr1677   2.418       .  S
O1667      C1686   1.282       .  A
O1668     Zr1676   2.425       .  S
O1668      C1687   1.284       .  A
O1669      C1686   1.284       .  A
O1670     Zr1678   2.414       .  S
O1670      C1685   1.281       .  A
O1671     Zr1676   2.394       .  S
O1671     Zr1678   2.380       .  S
O1672     Zr1677   2.382       .  S
O1672     Zr1678   2.377       .  S
O1672      H1707   0.974       .  S
O1673     Zr1676   2.393       .  S
O1673     Zr1693   2.399       .  S
O1673      H1710   0.968       .  S
O1674     Zr1677   2.384       .  S
O1674     Zr1693   2.391       .  S
Zr1675     O1700   2.443       .  S
Zr1675     O1694   2.430       .  S
Zr1675     O1702   2.445       .  S
Zr1675     O1690   2.441       .  S
Zr1675     O1681   2.401       .  S
Zr1675     O1682   2.404       .  S
Zr1675     O1683   2.381       .  S
Zr1675     O1684   2.384       .  S
Zr1676     O1695   2.436       .  S
Zr1676     O1688   2.434       .  S
Zr1676     O1689   2.425       .  S
Zr1676     O1682   2.393       .  S
Zr1676     O1683   2.382       .  S
Zr1677     O1679   2.436       .  S
Zr1677     O1701   2.438       .  S
Zr1677     O1703   2.408       .  S
Zr1677     O1681   2.395       .  S
Zr1677     O1684   2.386       .  S
Zr1678     O1704   2.435       .  S
Zr1678     O1705   2.435       .  S
Zr1678     O1680   2.437       .  S
Zr1678     O1681   2.396       .  S
Zr1678     O1682   2.391       .  S
O1679      H1716   0.991       .  S
O1680      H1711   0.991       .  S
O1680      H1725   0.990       .  S
O1682      H1708   0.968       .  S
O1683     Zr1693   2.372       .  S
O1684     Zr1693   2.372       .  S
O1684      H1709   0.963       .  S
C1685      C1810   1.481       .  S
C1686      C1783   1.483       .  S
C1687      C4008   1.478       .  S
O1688      H1724   0.989       .  S
O1689      C1691   1.285       .  A
O1690      C1691   1.287       .  A
C1691      C1863   1.489       .  S
O1692     Zr1693   2.440       .  S
O1692      H1721   0.990       .  S
Zr1693     O1696   2.436       .  S
Zr1693     O1697   2.440       .  S
Zr1693     O1698   2.433       .  S
O1694      C1699   1.285       .  A
O1695      H1712   0.990       .  S
O1695      H1727   0.989       .  S
O1696      H1713   0.990       .  S
O1697      H1717   0.990       .  S
O1697      H1726   0.990       .  S
O1698      C1699   1.286       .  A
C1699      C1890   1.488       .  S
O1700      H1719   0.990       .  S
O1700      H1723   0.991       .  S
O1701      H1715   0.990       .  S
O1701      H1722   0.990       .  S
O1702      C1706   1.288       .  A
O1703      C1706   1.280       .  A
O1704      H1714   0.989       .  S
O1705      H1718   0.989       .  S
C1706      C1833   1.485       .  S
C1729      C1730   1.404       .  A
C1729      C1734   1.397       .  A
C1729      H1736   1.083       .  S
C1730      C1731   1.409       .  A
C1731      C1732   1.396       .  A
C1731      F1738   1.358       .  S
C1732      C1733   1.402       .  A
C1732      H1737   1.083       .  S
C1733      C1734   1.407       .  A
C1734      F1735   1.358       .  S
C1739      C1740   1.406       .  A
C1739      C1744   1.395       .  A
C1739      H1746   1.083       .  S
C1740      C1741   1.408       .  A
C1740      C3955   1.478   1_455  S
C1741      C1742   1.399       .  A
C1741      F1748   1.357       .  S
C1742      C1743   1.404       .  A
C1742      H1747   1.083       .  S
C1743      C1744   1.404       .  A
C1744      F1745   1.358       .  S
C1749      C1750   1.400       .  A
C1749      C1754   1.394       .  A
C1749      H1756   1.084       .  S
C1750      C1751   1.404       .  A
C1751      C1752   1.401       .  A
C1751      F1758   1.357       .  S
C1752      C1753   1.404       .  A
C1752      H1757   1.083       .  S
C1753      C1754   1.407       .  A
C1754      F1755   1.358       .  S
C1759      C1760   1.404       .  A
C1759      C1764   1.401       .  A
C1759      H1766   1.083       .  S
C1760      C1761   1.404       .  A
C1761      C1762   1.394       .  A
C1761      F1768   1.358       .  S
C1762      C1763   1.406       .  A
C1762      H1767   1.083       .  S
C1763      C1764   1.410       .  A
C1764      F1765   1.357       .  S
C1769      C1770   1.400       .  A
C1769      C1774   1.395       .  A
C1769      H1776   1.083       .  S
C1770      C1771   1.406       .  A
C1771      C1772   1.395       .  A
C1771      F1778   1.357       .  S
C1772      C1773   1.405       .  A
C1772      H1777   1.083       .  S
C1773      C1774   1.411       .  A
C1774      F1775   1.357       .  S
C1779      C1780   1.401       .  A
C1779      C1784   1.392       .  A
C1779      H1786   1.084       .  S
C1780      C1781   1.403       .  A
C1781      C1782   1.398       .  A
C1781      F1788   1.357       .  S
C1782      C1783   1.409       .  A
C1782      H1787   1.083       .  S
C1783      C1784   1.411       .  A
C1784      F1785   1.357       .  S
C1789      C2924   1.404   1_455  A
C1789      C1794   1.400       .  A
C1789      H1796   1.083       .  S
C1790      C2923   1.405       .  A
C1790      C1791   1.406   1_545  A
C1791      C4060   1.395       .  A
C1791      F1798   1.358       .  S
C1792      C4059   1.397   1_455  A
C1792      C1793   1.408   1_565  A
C1792      H1797   1.083       .  S
C1794      F1795   1.357       .  S
C1799      C1800   1.406       .  A
C1799      C1804   1.399       .  A
C1799      H1806   1.083       .  S
C1800      C1801   1.410       .  A
C1801      C1802   1.398       .  A
C1801      F1808   1.357       .  S
C1802      C1803   1.400       .  A
C1802      H1807   1.083   1_565  S
C1803      C1804   1.404       .  A
C1804      F1805   1.358       .  S
C1809      C1810   1.408       .  A
C1809      C1814   1.396       .  A
C1809      H1816   1.083       .  S
C1810      C1811   1.410       .  A
C1811      C1812   1.397       .  A
C1811      F1818   1.357       .  S
C1812      C1813   1.400       .  A
C1812      H1817   1.083       .  S
C1813      C1814   1.402       .  A
C1814      F1815   1.358       .  S
C1819      C1820   1.404       .  A
C1819      C1824   1.396       .  A
C1819      H1826   1.083       .  S
C1820      C1821   1.403       .  A
C1821      C1822   1.395       .  A
C1821      F1828   1.358       .  S
C1822      C1823   1.408       .  A
C1822      H1827   1.083       .  S
C1823      C1824   1.407       .  A
C1824      F1825   1.357       .  S
C1829      C1830   1.397       .  A
C1829      C1834   1.397       .  A
C1829      H1836   1.084       .  S
C1830      C1831   1.401       .  A
C1831      C1832   1.395       .  A
C1831      F1838   1.357       .  S
C1832      C1833   1.406       .  A
C1832      H1837   1.083       .  S
C1833      C1834   1.416       .  A
C1834      F1835   1.358       .  S
C1839      C1840   1.400       .  A
C1839      C1844   1.391       .  A
C1839      H1846   1.084       .  S
C1840      C1841   1.407       .  A
C1841      C1842   1.403       .  A
C1841      F1848   1.358       .  S
C1842      C1843   1.404       .  A
C1843      C1844   1.403       .  A
C1844      F1845   1.358       .  S
C1849      C1850   1.407       .  A
C1849      C1854   1.402       .  A
C1849      H1856   1.083       .  S
C1850      C1851   1.404       .  A
C1851      C1852   1.393       .  A
C1851      F1858   1.358       .  S
C1852      C1853   1.405       .  A
C1852      H1857   1.083       .  S
C1853      C1854   1.407       .  A
C1854      F1855   1.357       .  S
C1859      C1860   1.403       .  A
C1859      C1864   1.402       .  A
C1859      H1866   1.083       .  S
C1860      C1861   1.405       .  A
C1861      C1862   1.395       .  A
C1861      F4136   1.358       .  S
C1862      C1863   1.408       .  A
C1862      H1867   1.083       .  S
C1863      C1864   1.412       .  A
C1864      F1865   1.357       .  S
F1868      C4129   1.358       .  S
C1869      C1870   1.407       .  A
C1869      C1874   1.395       .  A
C1869      H1876   1.083       .  S
C1870      C1871   1.410       .  A
C1871      C4140   1.400       .  A
C1871      F4146   1.357       .  S
C1872      C4139   1.397       .  A
C1872      C4141   1.402       .  A
C1872      H1877   1.083       .  S
C1873      C4140   1.404       .  A
C1873      C1874   1.403       .  A
C1874      F1875   1.358       .  S
F1878      C4139   1.357       .  S
C1879      C1880   1.402       .  A
C1879      C1884   1.399       .  A
C1879      H1886   1.084       .  S
C1880      C1881   1.403       .  A
C1881      C1882   1.397       .  A
C1881      F1888   1.357       .  S
C1882      C1883   1.406       .  A
C1882      H1887   1.083       .  S
C1883      C1884   1.412       .  A
C1884      F1885   1.357       .  S
C1889      C1890   1.408       .  A
C1889      C1894   1.397       .  A
C1889      H1896   1.083       .  S
C1890      C1891   1.413       .  A
C1891      C1892   1.401       .  A
C1891      F1898   1.357       .  S
C1892      C1893   1.402       .  A
C1892      H1897   1.083       .  S
C1893      C1894   1.403       .  A
C1894      F1895   1.358       .  S
C1899      C1900   1.400       .  A
C1899      C1904   1.395       .  A
C1899      H1906   1.084       .  S
C1900      C1901   1.404       .  A
C1901      C1902   1.399       .  A
C1901      F1908   1.357       .  S
C1902      C1903   1.405       .  A
C1902      H1907   1.083       .  S
C1903      C1904   1.411       .  A
C1903      C3802   1.479       .  S
C1904      F1905   1.358       .  S
C1909      C1910   1.401       .  A
C1909      C1914   1.394       .  A
C1909      H4184   1.084       .  S
C1910      C1911   1.407       .  A
C1911      C1912   1.402       .  A
C1911      F1918   1.358       .  S
C1912      C1913   1.407       .  A
C1912      H1917   1.083       .  S
C1913      C1914   1.409       .  A
C1914      F1915   1.357       .  S
H1916      C4177   1.084       .  S
C1919      C1920   1.402       .  A
C1919      C1924   1.394       .  A
C1920      C1921   1.403   1_565  A
C1921      C1922   1.398   1_545  A
C1921      F1928   1.358       .  S
C1922      C1923   1.408       .  A
C1922      H1927   1.083       .  S
C1923      C1924   1.406       .  A
C1924      F1925   1.357       .  S
C1929      C4198   1.406   1_455  A
C1929      C1934   1.396       .  A
C1929      H1936   1.083       .  S
C1930      C4197   1.404       .  A
C1930      C1931   1.402       .  A
C1931      C1932   1.393       .  A
C1931      F1938   1.358       .  S
C1932      C4201   1.402       .  A
C1932      H1937   1.084       .  S
C1933      C4200   1.400   1_455  A
C1933      C1934   1.401       .  A
C1934      F1935   1.358       .  S
C1939      C1940   1.405       .  A
C1939      C1944   1.400   1_655  A
C1939      H1946   1.083       .  S
C1940      C1941   1.407   1_655  A
C1940      C3665   1.477       .  S
C1941      C1942   1.394       .  A
C1941      F4216   1.358       .  S
C1942      C1943   1.402       .  A
C1942      H1947   1.083       .  S
C1943      C1944   1.408       .  A
C1944      F1945   1.357       .  S
F1948      C4209   1.358       .  S
C1949      C1950   1.401       .  A
C1949      C1954   1.392       .  A
C1949      H1956   1.084       .  S
C1950      C1951   1.404       .  A
C1951      C1952   1.402       .  A
C1951      F1958   1.357       .  S
C1952      C1953   1.409       .  A
C1952      H1957   1.083       .  S
C1953      C1954   1.412       .  A
C1954      F1955   1.357       .  S
C1959      C1960   1.407       .  A
C1959      C1964   1.397       .  A
C1959      H1966   1.083       .  S
C1960      C1961   1.408       .  A
C1961      C1962   1.398       .  A
C1961      F1968   1.357       .  S
C1962      C1963   1.404       .  A
C1962      H1967   1.083       .  S
C1963      C1964   1.404       .  A
C1964      F1965   1.358       .  S
C1969      C1970   1.405       .  A
C1969      C1974   1.401       .  A
C1969      H1976   1.083       .  S
C1970      C1971   1.405       .  A
C1971      C1972   1.398       .  A
C1971      F1978   1.358       .  S
C1972      C1973   1.407       .  A
C1972      H1977   1.083       .  S
C1973      C1974   1.410       .  A
C1974      F1975   1.357       .  S
C1979      C1980   1.403       .  A
C1979      C1984   1.398       .  A
C1979      H1986   1.083       .  S
C1980      C1981   1.406       .  A
C1981      C1982   1.403       .  A
C1981      F1988   1.357       .  S
C1982      C1983   1.407       .  A
C1982      H1987   1.083       .  S
C1983      C1984   1.410       .  A
C1984      F1985   1.358       .  S
C1989      C1990   1.403       .  A
C1989      C1994   1.402       .  A
C1989      H1996   1.083       .  S
C1990      C1991   1.405       .  A
C1991      C1992   1.401       .  A
C1991      F1998   1.358       .  S
C1992      C1993   1.408       .  A
C1992      H1997   1.083       .  S
C1993      C1994   1.412       .  A
C1994      F1995   1.357       .  S
C1999      C2000   1.407       .  A
C1999      C2004   1.396       .  A
C1999      H2006   1.083   1_455  S
C2000      C2001   1.408       .  A
C2001      C2002   1.396       .  A
C2001      F2008   1.357       .  S
C2002      C2003   1.405       .  A
C2002      H2007   1.083       .  S
C2003      C2004   1.407       .  A
C2004      F2005   1.358   1_455  S
C2009      C2010   1.402       .  A
C2009      C2014   1.395       .  A
C2009      H2016   1.083       .  S
C2010      C2011   1.406       .  A
C2011      C2012   1.392       .  A
C2011      F2018   1.358       .  S
C2012      C2013   1.404       .  A
C2012      H2017   1.084       .  S
C2013      C2014   1.408       .  A
C2014      F2015   1.357       .  S
C2019      C2020   1.400       .  A
C2019      C4292   1.395       .  A
C2019      H2026   1.084       .  S
C2020      C4289   1.397   1_455  A
C2021      C4288   1.400       .  A
C2021      C2022   1.396       .  A
C2021      F2028   1.357       .  S
C2022      C2023   1.409       .  A
C2022      H2027   1.082       .  S
C2023      C2024   1.412       .  A
C2024      C4287   1.400       .  A
C2024      F2025   1.358       .  S
C2029      C2030   1.404       .  A
C2029      C2034   1.393       .  A
C2029      H2036   1.084       .  S
C2030      C2031   1.400       .  A
C2031      C2032   1.393       .  A
C2031      F2038   1.358       .  S
C2032      C2033   1.408       .  A
C2032      H2037   1.083       .  S
C2033      C2034   1.405       .  A
C2034      F2035   1.357       .  S
C2039      C2040   1.397       .  A
C2039      C2044   1.394       .  A
C2039      H2046   1.084       .  S
C2040      C2041   1.400       .  A
C2041      C2042   1.393       .  A
C2041      F2048   1.358       .  S
C2042      C2043   1.409       .  A
C2042      H2047   1.083       .  S
C2043      C2044   1.413       .  A
C2044      F2045   1.356       .  S
C2049      C2050   1.404       .  A
C2049      C2054   1.395       .  A
C2050      C2051   1.410       .  A
C2051      C2052   1.401       .  A
C2051      F2058   1.358       .  S
C2052      C2053   1.405       .  A
C2052      H2057   1.083       .  S
C2053      C2054   1.406       .  A
C2054      F2055   1.357       .  S
C2059      C2060   1.405       .  A
C2059      C2064   1.396       .  A
C2059      H2066   1.083       .  S
C2060      C2061   1.404       .  A
C2061      F2068   1.358       .  S
C2062      C2063   1.405       .  A
C2062      H2067   1.083       .  S
C2063      C3564   1.481       .  S
C2064      F2065   1.357       .  S
C2069      C2070   1.399       .  A
C2069      C2074   1.395       .  A
C2069      H2076   1.084       .  S
C2070      C2071   1.404       .  A
C2071      C2072   1.401       .  A
C2071      F2078   1.357       .  S
C2072      C2073   1.408       .  A
C2072      H2077   1.083       .  S
C2073      C2074   1.415       .  A
C2074      F2075   1.358       .  S
C2079      C2080   1.405       .  A
C2079      C2084   1.392       .  A
C2079      H2086   1.083       .  S
C2080      C2081   1.415       .  A
C2081      C2082   1.402       .  A
C2081      F2088   1.357       .  S
C2082      C2083   1.402       .  A
C2082      H2087   1.083       .  S
C2083      C2084   1.406       .  A
C2084      F2085   1.358       .  S
C2089      C4358   1.407       .  A
C2089      C2094   1.398       .  A
C2089      H4364   1.083       .  S
C2090      C4357   1.408       .  A
C2090      C4359   1.412       .  A
C2091      C4358   1.411       .  A
C2091      C2092   1.393       .  A
C2091      F2098   1.356   1_455  S
C2092      C2093   1.400       .  A
C2092      H2097   1.084       .  S
C2093      C2094   1.405       .  A
C2094      F2095   1.358       .  S
H2096      C4357   1.083       .  S
C2099      C2100   1.405       .  A
C2099      C2104   1.398       .  A
C2099      H2106   1.083       .  S
C2100      C2101   1.407       .  A
C2101      C2102   1.395       .  A
C2101      F2108   1.358       .  S
C2102      C2103   1.405       .  A
C2102      H2107   1.083       .  S
C2103      C2104   1.407       .  A
C2104      F2105   1.358       .  S
C2109      C2110   1.406       .  A
C2109      C2114   1.394       .  A
C2109      H2116   1.083       .  S
C2110      C2111   1.407       .  A
C2111      C2112   1.395       .  A
C2111      F2118   1.357       .  S
C2112      C2113   1.404       .  A
C2112      H2117   1.083       .  S
C2113      C2114   1.404       .  A
C2114      F2115   1.358       .  S
C2119      C2120   1.409       .  A
C2119      C2124   1.394       .  A
C2119      H2126   1.083       .  S
C2120      C2121   1.408       .  A
C2121      C2122   1.394       .  A
C2121      F2128   1.357       .  S
C2122      C2123   1.403       .  A
C2122      H2127   1.083       .  S
C2123      C2124   1.402       .  A
C2124      F2125   1.358       .  S
C2129      C2130   1.410       .  A
C2129      C2134   1.396       .  A
C2129      H2136   1.083       .  S
C2130      C2131   1.411       .  A
C2131      C2132   1.392       .  A
C2131      F2138   1.357       .  S
C2132      C2133   1.398       .  A
C2132      H2137   1.084       .  S
C2133      C2134   1.398       .  A
C2134      F2135   1.358       .  S
C2139      C2140   1.400       .  A
C2139      C2144   1.390       .  A
C2139      H2146   1.084       .  S
C2140      C2141   1.402       .  A
C2141      C2142   1.393       .  A
C2141      F2148   1.358       .  S
C2142      C2143   1.406       .  A
C2142      H2147   1.083       .  S
C2143      C2144   1.408       .  A
C2144      F2145   1.358       .  S
C2149      C2150   1.403       .  A
C2149      C2154   1.393       .  A
C2149      H2156   1.083       .  S
C2150      C2151   1.404       .  A
C2151      C2152   1.393       .  A
C2151      F2158   1.358       .  S
C2152      C2153   1.406       .  A
C2152      H2157   1.083       .  S
C2153      C2154   1.408       .  A
C2154      F2155   1.357       .  S
C2159      C2160   1.401       .  A
C2159      C2164   1.396       .  A
C2159      H2166   1.084       .  S
C2160      C2161   1.405       .  A
C2161      C2162   1.399       .  A
C2161      F2168   1.358       .  S
C2162      C2163   1.409       .  A
C2162      H2167   1.083       .  S
C2163      C2164   1.413       .  A
C2164      F2165   1.357       .  S
C2169      C2170   1.400       .  A
C2169      C2174   1.400       .  A
C2169      H2176   1.083       .  S
C2170      C2171   1.402       .  A
C2171      C2172   1.389       .  A
C2172      C2173   1.403       .  A
C2173      C2174   1.412       .  A
C2173      C3512   1.474       .  S
C2174      F2175   1.358       .  S
C2179      C2180   1.408       .  A
C2179      C2184   1.391       .  A
C2179      H2186   1.083       .  S
C2180      C2181   1.406       .  A
C2181      C2182   1.404       .  A
C2181      F2188   1.357       .  S
C2182      C2183   1.409       .  A
C2182      H2187   1.083       .  S
C2183      C2184   1.401       .  A
C2184      F2185   1.358       .  S
C2189      C2190   1.400       .  A
C2189      C2194   1.395       .  A
C2189      H2196   1.084       .  S
C2190      C2191   1.403       .  A
C2191      C2192   1.395       .  A
C2191      F2198   1.358       .  S
C2192      C2193   1.406       .  A
C2192      H2197   1.083       .  S
C2193      C2194   1.412       .  A
C2194      F2195   1.357       .  S
C2199      C2200   1.400       .  A
C2199      C2204   1.389       .  A
C2199      H2206   1.084       .  S
C2201      C2202   1.404       .  A
C2201      F2208   1.357       .  S
C2202      H2207   1.083       .  S
C2203      C2204   1.411       .  A
C2204      F2205   1.358       .  S
C2209      C2210   1.402       .  A
C2209      C2214   1.392       .  A
C2209      H2216   1.084       .  S
C2210      C2211   1.408       .  A
C2211      C2212   1.396       .  A
C2211      F2218   1.358       .  S
C2212      C2213   1.404       .  A
C2212      H2217   1.083       .  S
C2213      C2214   1.407       .  A
C2214      F2215   1.358       .  S
C2219      C2220   1.408       .  A
C2219      C2224   1.385       .  A
C2219      H2226   1.083       .  S
C2220      C2221   1.414       .  A
C2221      C2222   1.408       .  A
C2221      F2228   1.357       .  S
C2222      C2223   1.404       .  A
C2222      H2227   1.083       .  S
C2223      C2224   1.401       .  A
C2224      F2225   1.359       .  S
C2229      C2230   1.407       .  A
C2229      C2234   1.397       .  A
C2229      H2236   1.083       .  S
C2230      C2231   1.414       .  A
C2231      C2232   1.396       .  A
C2231      F2238   1.357       .  S
C2232      C2233   1.399       .  A
C2232      H2237   1.084       .  S
C2233      C2234   1.402       .  A
C2234      F2235   1.358       .  S
C2239      C2240   1.405       .  A
C2239      C2244   1.401       .  A
C2239      H2246   1.083       .  S
C2240      C2241   1.412       .  A
C2241      C2242   1.391       .  A
C2241      F2248   1.358       .  S
C2242      C2243   1.398       .  A
C2242      H2247   1.084       .  S
C2243      C2244   1.406       .  A
C2243      C3407   1.473       .  S
C2244      F2245   1.357       .  S
C2249      C2250   1.401       .  A
C2249      C2254   1.396       .  A
C2249      H2256   1.083       .  S
C2250      C2251   1.405       .  A
C2251      C2252   1.397       .  A
C2251      F2258   1.357       .  S
C2252      C2253   1.405       .  A
C2252      H2257   1.083       .  S
C2253      C2254   1.412       .  A
C2254      F2255   1.358       .  S
C2259      C2260   1.405       .  A
C2259      C2264   1.399       .  A
C2259      H2266   1.083   1_455  S
C2260      C2261   1.406       .  A
C2261      C2262   1.397       .  A
C2261      F2268   1.358       .  S
C2262      C2263   1.405       .  A
C2262      H2267   1.083       .  S
C2263      C2264   1.406       .  A
C2264      F4533   1.357   1_455  S
F2265      C4532   1.358       .  S
C2269      C2270   1.399       .  A
C2269      C2274   1.401       .  A
C2269      C3384   1.474       .  S
C2270      C2271   1.403       .  A
C2270      H2275   1.084       .  S
C2271      C2272   1.407       .  A
C2271      C3397   1.480       .  S
C2272      C2273   1.405       .  A
C2273      C2274   1.405       .  A
C2274      H2277   1.084       .  S
C2278      C2279   1.400       .  A
C2278      C2283   1.403       .  A
C2278      C3367   1.463       .  S
C2279      C2280   1.398       .  A
C2279      H2284   1.084       .  S
C2280      C2281   1.399       .  A
C2280      C3357   1.464       .  S
C2281      C2282   1.401       .  A
C2281      H2285   1.085       .  S
C2282      C2283   1.397       .  A
C2282      C3344   1.474       .  S
C2283      H2286   1.084       .  S
C2287      C3422   1.402       .  A
C2287      C2292   1.403       .  A
C2287      C3334   1.482       .  S
C2288      C3421   1.400       .  A
C2288      C2289   1.402       .  A
C2288      H2293   1.084       .  S
C2289      C2290   1.403       .  A
C2289      C3317   1.483       .  S
C2290      C3425   1.406   1_545  A
C2290      H2294   1.084       .  S
C2291      C3424   1.406       .  A
C2291      C2292   1.404       .  A
C2291      C3324   1.478       .  S
C2292      H2295   1.083       .  S
C2296      C3374   1.483       .  S
C2296      N2297   1.361       .  A
C2296      N2301   1.364       .  A
N2297      C2298   1.356       .  A
C2298      C3347   1.476       .  S
C2298      N2299   1.352       .  A
N2299      C2300   1.355       .  A
C2300      C3314   1.481       .  S
C2300      N2301   1.362       .  A
C2302      C3437   1.411       .  A
C2302      C2307   1.410       .  A
C2302      C3294   1.489   1_565  S
C2303      C3436   1.408       .  A
C2303      C2304   1.405       .  A
C2303      H2308   1.084       .  S
C2304      C2305   1.398       .  A
C2304      C3284   1.477       .  S
C2305      C2306   1.396       .  A
C2305      H2309   1.085       .  S
C2306      C3441   1.401       .  A
C2306      C3304   1.467       .  S
C2307      C3440   1.404       .  A
C2307      H2310   1.083   1_565  S
C2311      C2312   1.409       .  A
C2311      C2316   1.409       .  A
C2311      C3274   1.487       .  S
C2312      C2313   1.402       .  A
C2312      H2317   1.083       .  S
C2313      C2314   1.397       .  A
C2313      C3267   1.470       .  S
C2314      C2315   1.396       .  A
C2314      H2318   1.084       .  S
C2315      C2316   1.404       .  A
C2315      C3257   1.481       .  S
C2316      H2319   1.083       .  S
C2320      C3244   1.477       .  S
C2320      N2321   1.353       .  A
C2320      N2325   1.355       .  A
N2321      C2322   1.358       .  A
C2322      C3254   1.485       .  S
C2322      N2323   1.361       .  A
N2323      C2324   1.362       .  A
C2324      C3287   1.482       .  S
C2324      N2325   1.355       .  A
C2326      C2327   1.400       .  A
C2326      C2331   1.399       .  A
C2326      C3234   1.475       .  S
C2327      C2328   1.406       .  A
C2327      H2332   1.084       .  S
C2328      C2329   1.404       .  A
C2328      C3227   1.482       .  S
C2329      C2330   1.403       .  A
C2329      H2333   1.083       .  S
C2330      C2331   1.400       .  A
C2330      C3247   1.475       .  S
C2331      H2334   1.084       .  S
Zr2335     O2336   2.443       .  S
Zr2335     O3471   2.425       .  S
Zr2335     O2338   2.431       .  S
Zr2335     O3477   2.380       .  S
Zr2335     O2344   2.381       .  S
Zr2335     O2345   2.405       .  S
Zr2335     O2346   2.390       .  S
O2336      H2392   0.991       .  S
O2336      H2400   0.990       .  S
O2337     Zr3469   2.430   1_545  S
O2337      C2357   1.284       .  A
O2338      C2359   1.283       .  A
O2339     Zr2349   2.403   1_554  S
O2339      C2358   1.280       .  A
O2340     Zr2348   2.412       .  S
O2340      C3493   1.282       .  A
O2341      C2358   1.285       .  A
O2342     Zr2350   2.427       .  S
O2342      C2357   1.283       .  A
O2343     Zr3469   2.382   1_545  S
O2343     Zr2348   2.393       .  S
O2343     Zr2350   2.370       .  S
O2344     Zr3484   2.379       .  S
O2344      H2379   0.966       .  S
O2345     Zr3482   2.403       .  S
O2345     Zr2365   2.389   1_554  S
O2345      H2382   0.966       .  S
O2346     Zr2365   2.379   1_554  S
Zr2347     O3506   2.442       .  S
Zr2347     O2366   2.438       .  S
Zr2347     O2374   2.440       .  S
Zr2347     O3496   2.423       .  S
Zr2347     O3487   2.399       .  S
Zr2347     O3488   2.412       .  S
Zr2347     O2355   2.381       .  S
Zr2347     O2356   2.380       .  S
Zr2348     O3501   2.435   1_545  S
Zr2348     O2360   2.434       .  S
Zr2348     O2361   2.433   1_554  S
Zr2348     O3479   2.396   1_545  S
Zr2348     O2354   2.393   1_554  S
Zr2348     O3489   2.380   1_544  S
Zr2349     O2351   2.436       .  S
Zr2349     O2373   2.437       .  S
Zr2349     O2375   2.425       .  S
Zr2350     O2376   2.434   1_554  S
Zr2350     O2377   2.436   1_554  S
Zr2350     O2352   2.438       .  S
Zr2350     O3478   2.379       .  S
Zr2350     O2353   2.395   1_554  S
Zr2350     O2354   2.396   1_554  S
O2351      H2388   0.990       .  S
O2352      H2383   0.991       .  S
O2352      H2397   0.990       .  S
O2353     Zr3481   2.403   1_545  S
O2354     Zr3481   2.405   1_545  S
O2354      H2380   0.965       .  S
O2355     Zr3482   2.393   1_556  S
O2355     Zr2365   2.375       .  S
O2356     Zr2365   2.385       .  S
O2356      H2381   0.957       .  S
C2357      C3394   1.479       .  S
C2358      C3364   1.475       .  S
C2359      C3337   1.484       .  S
C2359      O3474   1.282       .  A
O2360      H2396   0.990       .  S
O2361      C2363   1.285       .  A
O2362     Zr3481   2.426   1_545  S
O2362      C2363   1.282       .  A
C2363      C3277   1.476       .  S
O2364     Zr2365   2.434   1_554  S
O2364      H2393   0.991       .  S
Zr2365     O2368   2.434   1_556  S
Zr2365     O2369   2.440       .  S
Zr2365     O2370   2.401       .  S
O2366      C2371   1.284       .  A
O2367     Zr3482   2.436       .  S
O2367      H3518   0.991       .  S
O2367      H2399   0.990       .  S
O2368      H2385   0.990       .  S
O2369      H2389   0.990       .  S
O2369      H2398   0.990       .  S
O2370      C2371   1.279       .  A
C2371      C3237   1.479       .  S
O2372     Zr3481   2.440   1_545  S
O2372      H2391   0.990       .  S
O2372      H2395   0.990       .  S
O2373      H2387   0.990       .  S
O2373      H2394   0.990       .  S
O2374      C2378   1.285       .  A
O2376      H2386   0.989       .  S
O2377      H2390   0.990       .  S
H2384      O3501   0.990       .  S
C2401      C2402   1.410       .  A
C2401      C2406   1.404       .  A
C2401      C3204   1.480       .  S
C2402      C2403   1.407       .  A
C2402      H2407   1.083       .  S
C2403      C2404   1.398       .  A
C2403      C3217   1.477       .  S
C2404      C2405   1.397       .  A
C2404      H2408   1.085       .  S
C2405      C2406   1.396       .  A
C2405      C3194   1.471       .  S
C2406      H2409   1.084       .  S
C2410      C2411   1.405       .  A
C2410      C2415   1.407       .  A
C2410      C4318   1.483   1_545  S
C2411      C2412   1.404       .  A
C2411      H2416   1.084       .  S
C2412      C2413   1.397       .  A
C2412      C3174   1.474       .  S
C2413      C2414   1.399       .  A
C2413      H2417   1.084       .  S
C2414      C2415   1.403       .  A
C2414      C3164   1.478       .  S
C2415      H2418   1.084   1_545  S
C2419      C2420   1.404       .  A
C2419      C2424   1.405       .  A
C2419      C3144   1.474       .  S
C2420      C2421   1.400       .  A
C2420      H2425   1.084       .  S
C2421      C2422   1.398       .  A
C2421      C3154   1.466       .  S
C2422      C2423   1.399       .  A
C2423      C2424   1.402       .  A
C2423      C3137   1.481       .  S
C2424      H2427   1.084       .  S
C2428      C3167   1.475       .  S
C2428      N2429   1.358       .  A
C2428      N2433   1.358       .  A
N2429      C2430   1.358       .  A
C2430      N2431   1.356       .  A
N2431      C2432   1.354       .  A
C2432      C3134   1.480       .  S
C2432      N2433   1.356       .  A
Zr2434     O2435   2.438       .  S
Zr2434     O2436   2.433       .  S
Zr2434     O2437   2.432       .  S
Zr2434     O2440   2.417       .  S
Zr2434     O2442   2.376       .  S
Zr2434     O2443   2.382       .  S
Zr2434     O2444   2.406       .  S
Zr2434     O2445   2.399       .  S
O2435      H2491   0.990       .  S
O2435      H2499   0.990       .  S
O2436      C2456   1.283       .  A
O2437      C2458   1.283       .  A
O2438     Zr2448   2.440       .  S
O2438      C2457   1.287       .  A
O2439     Zr2447   2.420       .  S
O2439      C2458   1.283       .  A
O2440      C2457   1.282       .  A
O2441     Zr2449   2.422       .  S
O2441      C2456   1.281       .  A
O2442     Zr2447   2.401       .  S
O2442     Zr2449   2.379       .  S
O2443     Zr2448   2.390       .  S
O2443     Zr2449   2.372       .  S
O2443      H2478   0.971       .  S
O2444     Zr2447   2.401       .  S
O2444     Zr2464   2.395       .  S
O2444      H2481   0.964       .  S
O2445     Zr2448   2.387       .  S
O2445     Zr2464   2.386       .  S
Zr2446     O2471   2.440       .  S
Zr2446     O2465   2.453       .  S
Zr2446     O2473   2.423       .  S
Zr2446     O2461   2.431       .  S
Zr2446     O2452   2.411       .  S
Zr2446     O2453   2.407       .  S
Zr2446     O2454   2.373       .  S
Zr2446     O2455   2.382       .  S
Zr2447     O2466   2.435       .  S
Zr2447     O2459   2.433       .  S
Zr2447     O2460   2.440       .  S
Zr2447     O2453   2.394       .  S
Zr2447     O2454   2.391       .  S
Zr2448     O2450   2.435   1_655  S
Zr2448     O2472   2.439       .  S
Zr2448     O2474   2.425       .  S
Zr2448     O2452   2.397       .  S
Zr2448     O2455   2.401       .  S
Zr2449     O2475   2.436       .  S
Zr2449     O2476   2.436       .  S
Zr2449     O2451   2.438       .  S
Zr2449     O2452   2.399       .  S
Zr2449     O2453   2.388       .  S
O2451      H2482   0.990       .  S
O2451      H2496   0.991       .  S
O2453      H2479   0.967       .  S
O2454     Zr2464   2.386       .  S
O2455     Zr2464   2.379       .  S
O2455      H2480   0.961       .  S
C2456      C3207   1.489       .  S
C2457      C3157   1.486       .  S
C2458      C3177   1.482       .  S
O2459      H2495   0.989       .  S
O2460      C2462   1.286       .  A
O2461      C2462   1.284       .  A
C2462      C3264   1.489       .  S
O2463     Zr2464   2.439       .  S
O2463      H2492   0.990       .  S
Zr2464     O2467   2.435       .  S
Zr2464     O2468   2.442       .  S
Zr2464     O2469   2.411       .  S
O2465      C2470   1.287       .  A
O2466      H2483   0.990       .  S
O2466      H2498   0.990       .  S
O2467      H2484   0.989       .  S
O2468      H2488   0.990       .  S
O2468      H2497   0.990       .  S
O2469      C2470   1.279       .  A
C2470      C3297   1.493       .  S
O2471      H2490   0.990       .  S
O2471      H2494   0.990       .  S
O2472      H2493   0.990   1_655  S
O2473      C2477   1.281       .  A
O2474      C2477   1.283       .  A
O2475      H2485   0.990       .  S
O2476      H2489   0.990       .  S
C2477      C3224   1.480   1_655  S
C2500      C2501   1.407       .  A
C2500      C2505   1.405       .  A
C2500      C3124   1.484       .  S
C2501      C2502   1.405       .  A
C2501      H2506   1.084       .  S
C2502      C2503   1.403       .  A
C2502      C3104   1.480       .  S
C2503      C2504   1.400       .  A
C2503      H2507   1.084       .  S
C2504      C2505   1.403       .  A
C2504      C3114   1.474       .  S
C2505      H2508   1.084       .  S
C2509      C2510   1.401       .  A
C2509      C2514   1.403       .  A
C2509      C3084   1.477       .  S
C2510      C2511   1.401       .  A
C2510      H2515   1.085       .  S
C2511      C2512   1.399       .  A
C2511      C3077   1.475       .  S
C2512      C2513   1.406       .  A
C2512      H2516   1.084       .  S
C2513      C2514   1.406       .  A
C2513      C3097   1.476       .  S
C2514      H2517   1.084       .  S
C2518      C2519   1.403       .  A
C2518      C2523   1.403       .  A
C2518      C4188   1.468   1_545  S
C2519      C2520   1.401       .  A
C2519      H2524   1.084       .  S
C2520      C2521   1.402       .  A
C2520      C3044   1.478       .  S
C2521      C2522   1.399       .  A
C2522      C2523   1.399       .  A
C2522      C3064   1.472       .  S
C2523      H3660   1.084   1_545  S
H2526      C3657   1.084       .  S
C2527      C3107   1.481       .  S
C2527      N2528   1.362       .  A
C2527      N2532   1.366       .  A
N2528      C2529   1.356       .  A
C2529      C3047   1.480       .  S
C2529      N2530   1.350       .  A
N2530      C2531   1.352       .  A
C2531      N2532   1.362       .  A
Zr2533     O2534   2.441       .  S
Zr2533     O2535   2.437       .  S
Zr2533     O2536   2.442       .  S
Zr2533     O2539   2.422       .  S
Zr2533     O2541   2.378       .  S
Zr2533     O2542   2.381       .  S
Zr2533     O2543   2.400       .  S
Zr2533     O2544   2.403       .  S
O2534      H2590   0.990       .  S
O2534      H2598   0.991       .  S
O2535      C2555   1.285       .  A
O2536      C2557   1.285       .  A
O2537     Zr2547   2.425       .  S
O2537      C2556   1.284       .  A
O2538     Zr2546   2.430       .  S
O2538      C2557   1.285       .  A
O2539      C2556   1.284       .  A
O2540     Zr2548   2.418       .  S
O2540      C2555   1.282       .  A
O2541     Zr2546   2.395       .  S
O2541     Zr2548   2.377       .  S
O2542     Zr2547   2.387       .  S
O2542     Zr2548   2.369       .  S
O2542      H2577   0.967       .  S
O2543     Zr2546   2.393       .  S
O2543     Zr2563   2.387       .  S
O2543      H2580   0.966       .  S
O2544     Zr2547   2.391       .  S
O2544     Zr2563   2.391       .  S
Zr2545     O2570   2.442       .  S
Zr2545     O2564   2.444       .  S
Zr2545     O2572   2.435       .  S
Zr2545     O2560   2.430       .  S
Zr2545     O2551   2.403       .  S
Zr2545     O2552   2.407       .  S
Zr2545     O2553   2.385       .  S
Zr2545     O2554   2.380       .  S
Zr2546     O2565   2.436       .  S
Zr2546     O2558   2.436       .  S
Zr2546     O2559   2.433       .  S
Zr2546     O2552   2.397       .  S
Zr2546     O2553   2.396       .  S
Zr2547     O2549   2.436       .  S
Zr2547     O2571   2.437       .  S
Zr2547     O2573   2.425       .  S
Zr2547     O2551   2.387       .  S
Zr2547     O2554   2.386       .  S
Zr2548     O2574   2.435       .  S
Zr2548     O2575   2.435       .  S
Zr2548     O2550   2.438       .  S
Zr2548     O2551   2.396       .  S
Zr2548     O2552   2.385       .  S
O2549      H2586   0.990       .  S
O2550      H2581   0.990       .  S
O2550      H2595   0.991       .  S
O2552      H2578   0.968       .  S
O2553     Zr2563   2.384       .  S
O2554     Zr2563   2.378       .  S
O2554      H2579   0.966       .  S
C2555      C3187   1.478       .  S
C2556      C3147   1.478       .  S
C2557      C3214   1.490       .  S
O2558      H2594   0.991       .  S
O2559      C2561   1.285       .  A
O2560      C2561   1.283       .  A
C2561      C3057   1.478       .  S
O2562     Zr2563   2.439       .  S
O2562      H2591   0.990       .  S
Zr2563     O2566   2.437       .  S
Zr2563     O2567   2.440       .  S
Zr2563     O2568   2.412       .  S
O2564      C2569   1.287       .  A
O2565      H2582   0.990       .  S
O2565      H2597   0.991       .  S
O2566      H2583   0.989       .  S
O2567      H2587   0.990       .  S
O2567      H2596   0.990       .  S
O2568      C2569   1.280       .  A
C2569      C3117   1.485       .  S
O2570      H2589   0.991       .  S
O2570      H2593   0.990       .  S
O2571      H2585   0.990       .  S
O2571      H2592   0.991       .  S
O2572      C2576   1.285       .  A
O2573      C2576   1.283       .  A
O2574      H2584   0.990       .  S
O2575      H2588   0.991       .  S
C2576      C3087   1.488       .  S
C2599      C2600   1.411       .  A
C2599      C2604   1.405       .  A
C2599      C3034   1.488       .  S
C2600      C2601   1.407       .  A
C2600      H2605   1.084       .  S
C2601      C2602   1.401       .  A
C2601      C3014   1.484       .  S
C2602      C2603   1.402       .  A
C2602      H2606   1.084       .  S
C2603      C2604   1.404       .  A
C2603      C3027   1.481       .  S
C2604      H2607   1.083       .  S
C2608      C2613   1.410       .  A
C2608      C2994   1.492   1_455  S
C2609      C2610   1.403       .  A
C2609      H2614   1.084       .  S
C2610      C2611   1.398       .  A
C2610      C2984   1.482       .  S
C2611      C2612   1.406       .  A
C2611      H2615   1.084       .  S
C2612      C3007   1.478       .  S
C2613      H2616   1.083   1_455  S
C2617      C2618   1.403       .  A
C2617      C2622   1.401       .  A
C2617      C2964   1.463       .  S
C2618      C2619   1.406       .  A
C2618      H2623   1.083       .  S
C2619      C3754   1.401   1_545  A
C2619      C2974   1.479       .  S
C2620      C3753   1.400       .  A
C2620      C2621   1.401       .  A
C2620      H2624   1.084       .  S
C2621      C3756   1.400       .  A
C2621      C2954   1.480       .  S
C2622      C3755   1.395   1_545  A
C2622      H2625   1.084       .  S
C2626      C3017   1.486       .  S
C2626      N2627   1.367       .  A
C2626      N2631   1.361       .  A
N2627      C2628   1.363       .  A
C2628      C2987   1.481       .  S
C2628      N2629   1.353       .  A
N2629      C2630   1.352       .  A
C2630      C2957   1.479       .  S
C2630      N2631   1.357       .  A
Zr2632     O3767   2.440       .  S
Zr2632     O2634   2.436       .  S
Zr2632     O3769   2.438   1_545  S
Zr2632     O2638   2.439       .  S
Zr2632     O2640   2.378       .  S
Zr2632     O2641   2.377       .  S
Zr2632     O3776   2.414   1_545  S
Zr2632     O2643   2.400       .  S
O2633     Zr3766   2.441       .  S
O2633      H2689   0.990       .  S
O2633      H2697   0.991       .  S
O2634      C2654   1.283       .  A
O2635     Zr3766   2.438       .  S
O2635      C2656   1.284       .  A
O2636     Zr2646   2.417       .  S
O2636      C2655   1.282       .  A
O2637     Zr3779   2.430       .  S
O2637      C2656   1.284       .  A
O2638      C2655   1.284       .  A
O2639     Zr2647   2.418       .  S
O2639      C2654   1.280       .  A
O2640     Zr2645   2.400   1_545  S
O2640     Zr2647   2.378       .  S
O2641     Zr2646   2.397       .  S
O2641     Zr2647   2.378       .  S
O2641      H2676   0.957       .  S
O2642     Zr3766   2.412       .  S
O2642     Zr3779   2.402       .  S
O2642     Zr2662   2.381       .  S
O2642      H2679   0.964       .  S
O2643     Zr2646   2.385       .  S
O2643     Zr3796   2.387   1_545  S
Zr2644     O2669   2.444       .  S
Zr2644     O2663   2.445   1_545  S
Zr2644     O2671   2.446       .  S
Zr2644     O2659   2.428       .  S
Zr2644     O2650   2.397       .  S
Zr2644     O2651   2.411       .  S
Zr2644     O2652   2.381   1_545  S
Zr2644     O2653   2.380       .  S
Zr2645     O3798   2.438       .  S
Zr2645     O2657   2.435   1_565  S
Zr2645     O3771   2.419       .  S
Zr2645     O2658   2.423       .  S
Zr2645     O3776   2.404       .  S
Zr2645     O2651   2.396   1_565  S
Zr2645     O2652   2.392       .  S
Zr2646     O2670   2.436       .  S
Zr2646     O2672   2.414       .  S
Zr2646     O2650   2.391       .  S
Zr2646     O2653   2.395       .  S
Zr2647     O2673   2.436       .  S
Zr2647     O2674   2.436       .  S
Zr2647     O2649   2.442       .  S
Zr2647     O2650   2.393       .  S
Zr2647     O2651   2.389       .  S
O2648      H2685   0.991       .  S
O2649      H2680   0.990       .  S
O2649      H2694   0.990       .  S
O2651      H2677   0.962       .  S
O2652     Zr3796   2.381       .  S
O2653     Zr3796   2.383   1_545  S
O2653      H2678   0.968   1_545  S
C2654      C3127   1.483       .  S
C2655      C3067   1.464       .  S
C2656      C3094   1.481       .  S
O2657      H2693   0.990       .  S
O2658      C2660   1.283   1_565  A
O2659      C2660   1.281       .  A
C2660      C2977   1.455       .  S
O2661      H2690   0.990   1_455  S
Zr2662     O2665   2.438       .  S
Zr2662     O3777   2.383       .  S
Zr2662     O3786   2.381       .  S
Zr2662     O3787   2.382       .  S
O2663      C3802   1.286       .  A
O2664     Zr3779   2.435       .  S
O2664      H2681   0.990       .  S
O2664      H2696   0.990       .  S
O2666      H2686   0.989       .  S
O2666      H2695   0.991       .  S
C2668      O3797   1.287       .  A
O2669      H2688   0.990       .  S
O2669      H2692   0.991       .  S
O2670      H2684   0.990       .  S
O2670      H2691   0.989       .  S
O2671      C2675   1.285       .  A
O2672      C2675   1.281       .  A
O2673      H2683   0.990       .  S
O2674      H2687   0.990       .  S
C2675      C3004   1.478       .  S
C2698      C2699   1.404       .  A
C2698      C2703   1.404       .  A
C2698      C2937   1.478       .  S
C2699      C3834   1.402       .  A
C2699      H2704   1.084       .  S
C2700      C3833   1.403       .  A
C2700      C2701   1.401       .  A
C2700      C2947   1.478       .  S
C2701      C3836   1.403       .  A
C2701      H2705   1.084       .  S
C2702      C3835   1.402       .  A
C2702      C2703   1.405       .  A
C2702      C2924   1.479       .  S
C2703      H2706   1.084       .  S
C2707      C2708   1.405       .  A
C2707      C2712   1.406       .  A
C2707      C2914   1.486       .  S
C2708      C2709   1.400       .  A
C2708      H2713   1.084       .  S
C2709      C2710   1.394       .  A
C2709      C2894   1.470       .  S
C2710      C2711   1.402       .  A
C2710      H2714   1.085       .  S
C2711      C2712   1.405       .  A
C2711      C2904   1.472       .  S
C2712      H2715   1.083       .  S
C2716      C2717   1.406       .  A
C2716      C2721   1.405       .  A
C2716      C2877   1.474       .  S
C2717      C2718   1.405       .  A
C2717      H2722   1.084       .  S
C2718      C2719   1.400       .  A
C2718      C2884   1.479       .  S
C2719      C2720   1.403       .  A
C2719      H2723   1.084       .  S
C2720      C2721   1.402       .  A
C2720      C2867   1.482       .  S
C2721      H2724   1.084       .  S
C2725      C4061   1.476       .  S
C2725      N2726   1.361       .  A
C2725      N3864   1.360   1_545  A
N2726      C2727   1.359       .  A
C2727      C2897   1.473       .  S
C2727      N3862   1.353       .  A
N2728      C3861   1.356       .  A
N2728      C2729   1.353       .  A
C2729      C2864   1.483       .  S
C2729      N2730   1.356       .  A
N2730      C3859   1.362       .  A
Zr2731     O2732   2.442       .  S
Zr2731     O2733   2.454       .  S
Zr2731     O2734   2.438       .  S
Zr2731     O2737   2.442       .  S
Zr2731     O2739   2.379       .  S
Zr2731     O2740   2.382       .  S
Zr2731     O2741   2.412       .  S
Zr2731     O2742   2.405       .  S
O2732      H2788   0.990       .  S
O2732      H2796   0.991       .  S
O2733      C2753   1.288       .  A
O2734      C2755   1.285       .  A
O2735     Zr2745   2.423       .  S
O2735      C2754   1.283       .  A
O2736     Zr2744   2.425       .  S
O2736      C2755   1.282       .  A
O2737      C2754   1.285       .  A
O2738     Zr2746   2.404       .  S
O2738      C2753   1.279       .  A
O2739     Zr2744   2.391       .  S
O2739     Zr2746   2.381       .  S
O2740     Zr2745   2.391       .  S
O2740     Zr2746   2.375       .  S
O2740      H2775   0.964       .  S
O2741     Zr2744   2.400       .  S
O2741     Zr2761   2.380       .  S
O2741      H2778   0.963       .  S
O2742     Zr2745   2.385       .  S
O2742     Zr2761   2.392       .  S
Zr2743     O2768   2.443       .  S
Zr2743     O2762   2.445       .  S
Zr2743     O2770   2.440       .  S
Zr2743     O2758   2.445       .  S
Zr2743     O2749   2.402       .  S
Zr2743     O2750   2.409       .  S
Zr2743     O2751   2.380       .  S
Zr2743     O2752   2.381       .  S
Zr2744     O2763   2.437       .  S
Zr2744     O2756   2.436       .  S
Zr2744     O2757   2.414       .  S
Zr2744     O2750   2.397       .  S
Zr2744     O2751   2.403       .  S
Zr2745     O2747   2.435       .  S
Zr2745     O2769   2.436       .  S
Zr2745     O2771   2.418       .  S
Zr2745     O2749   2.392       .  S
Zr2745     O2752   2.392       .  S
Zr2746     O2772   2.435       .  S
Zr2746     O2773   2.436       .  S
Zr2746     O2748   2.437       .  S
Zr2746     O2749   2.382       .  S
Zr2746     O2750   2.385       .  S
O2747      H2784   0.989       .  S
O2748      H2779   0.990       .  S
O2748      H2793   0.990       .  S
O2750      H2776   0.963       .  S
O2751     Zr2761   2.382       .  S
O2752     Zr2761   2.373       .  S
O2752      H2777   0.962       .  S
C2753      C2934   1.483       .  S
C2754      C2887   1.472       .  S
C2755      C2907   1.476       .  S
O2756      H2792   0.990       .  S
O2757      C2759   1.283       .  A
O2758      C2759   1.286       .  A
C2759      C3354   1.470       .  S
O2760     Zr2761   2.438       .  S
O2760      H2789   0.990       .  S
Zr2761     O2764   2.437       .  S
Zr2761     O2765   2.440       .  S
Zr2761     O2766   2.409       .  S
O2762      C2767   1.285       .  A
O2763      H2780   0.991       .  S
O2763      H2795   0.990       .  S
O2764      H2781   0.989       .  S
O2765      H2785   0.990       .  S
O2765      H2794   0.990       .  S
O2766      C2767   1.279       .  A
C2767      C3387   1.480       .  S
O2768      H2787   0.991       .  S
O2768      H2791   0.990       .  S
O2769      H2783   0.990       .  S
O2769      H2790   0.990       .  S
O2770      C2774   1.286       .  A
O2771      C2774   1.282       .  A
O2772      H2782   0.990       .  S
O2773      H2786   0.991       .  S
C2774      C3327   1.477       .  S
Zr2797     O2798   2.440       .  S
Zr2797     O2799   2.430       .  S
Zr2797     O2800   2.426       .  S
Zr2797     O2803   2.435       .  S
Zr2797     O2805   2.384       .  S
Zr2797     O2806   2.377       .  S
Zr2797     O2807   2.408       .  S
Zr2797     O2808   2.402       .  S
O2798      H2854   0.991       .  S
O2798      H2862   0.990       .  S
O2799      C2819   1.283       .  A
O2800      C2821   1.283       .  A
O2801     Zr2811   2.424       .  S
O2801      C2820   1.284       .  A
O2802     Zr2810   2.433       .  S
O2802      C2821   1.285       .  A
O2803      C2820   1.285       .  A
O2804     Zr2812   2.428       .  S
O2804      C2819   1.283       .  A
O2805     Zr2810   2.397       .  S
O2805     Zr2812   2.377       .  S
O2806     Zr2811   2.384       .  S
O2806     Zr2812   2.373       .  S
O2806      H2841   0.969       .  S
O2807     Zr2810   2.398       .  S
O2807     Zr2827   2.393       .  S
O2807      H2844   0.970       .  S
O2808     Zr2811   2.387       .  S
O2808     Zr2827   2.395       .  S
Zr2809     O2834   2.445       .  S
Zr2809     O2828   2.427       .  S
Zr2809     O2836   2.425       .  S
Zr2809     O2824   2.425       .  S
Zr2809     O2815   2.402       .  S
Zr2809     O2816   2.404       .  S
Zr2809     O2817   2.376       .  S
Zr2809     O2818   2.384       .  S
Zr2810     O2829   2.438       .  S
Zr2810     O2822   2.434       .  S
Zr2810     O2823   2.441       .  S
Zr2810     O2816   2.394       .  S
Zr2810     O2817   2.381       .  S
Zr2811     O2813   2.435       .  S
Zr2811     O2835   2.436       .  S
Zr2811     O2837   2.420       .  S
Zr2811     O2815   2.393       .  S
Zr2811     O2818   2.387       .  S
Zr2812     O2838   2.435       .  S
Zr2812     O2839   2.435       .  S
Zr2812     O2814   2.438       .  S
Zr2812     O2815   2.398       .  S
Zr2812     O2816   2.399       .  S
O2813      H2850   0.990       .  S
O2814      H2845   0.990       .  S
O2814      H2859   0.990       .  S
O2816      H2842   0.969       .  S
O2817     Zr2827   2.372       .  S
O2818     Zr2827   2.373       .  S
O2818      H2843   0.964       .  S
C2819      C2944   1.483       .  S
C2820      C2917   1.489       .  S
O2822      H2858   0.990   1_655  S
O2823      C2825   1.288       .  A
O2824      C2825   1.282       .  A
C2825      C2997   1.491       .  S
O2826     Zr2827   2.438       .  S
O2826      H2855   0.990       .  S
Zr2827     O2830   2.436       .  S
Zr2827     O2831   2.439       .  S
Zr2827     O2832   2.428       .  S
O2828      C2833   1.283       .  A
O2829      H2846   0.990   1_655  S
O2829      H2861   0.990       .  S
O2830      H2847   0.990       .  S
O2831      H2851   0.990       .  S
O2831      H2860   0.990       .  S
O2832      C2833   1.284       .  A
C2833      C3024   1.479       .  S
O2834      H2853   0.990       .  S
O2834      H2857   0.990       .  S
O2835      H2849   0.990       .  S
O2835      H2856   0.990       .  S
O2836      C2840   1.284       .  A
O2837      C2840   1.283       .  A
O2838      H2848   0.990       .  S
O2839      H2852   0.990       .  S
C2840      C2967   1.482       .  S
C2863      C2864   1.406       .  A
C2863      C2868   1.401       .  A
C2863      H2870   1.083       .  S
C2864      C2865   1.410       .  A
C2865      C2866   1.395       .  A
C2865      F2872   1.357       .  S
C2866      C2867   1.402       .  A
C2866      H2871   1.084       .  S
C2867      C2868   1.409       .  A
C2868      F2869   1.358       .  S
C2873      C2874   1.408       .  A
C2873      C2878   1.400       .  A
C2873      H2880   1.083       .  S
C2874      C2875   1.412       .  A
C2875      C2876   1.396       .  A
C2875      F2882   1.358       .  S
C2876      C2877   1.400       .  A
C2876      H2881   1.084       .  S
C2877      C2878   1.404       .  A
C2878      F2879   1.357       .  S
C2883      C2884   1.402       .  A
C2883      C2888   1.397       .  A
C2883      H2890   1.083       .  S
C2884      C2885   1.408       .  A
C2885      C2886   1.401       .  A
C2885      F2892   1.358       .  S
C2886      C2887   1.403       .  A
C2886      H2891   1.083       .  S
C2887      C2888   1.405       .  A
C2888      F2889   1.358       .  S
C2893      C2894   1.405       .  A
C2893      C2898   1.398       .  A
C2893      H2900   1.083       .  S
C2894      C2895   1.400       .  A
C2895      C2896   1.392       .  A
C2895      F2902   1.357       .  S
C2896      C2897   1.406       .  A
C2896      H2901   1.083       .  S
C2897      C2898   1.406       .  A
C2898      F2899   1.357       .  S
C2903      C2904   1.402       .  A
C2903      C2908   1.395       .  A
C2903      H2910   1.084       .  S
C2904      C2905   1.404       .  A
C2905      C2906   1.394       .  A
C2905      F2912   1.357       .  S
C2906      C2907   1.405       .  A
C2906      H2911   1.083       .  S
C2907      C2908   1.411       .  A
C2908      F2909   1.357       .  S
C2913      C2914   1.404       .  A
C2913      C2918   1.393       .  A
C2913      H2920   1.083       .  S
C2914      C2915   1.407       .  A
C2915      C2916   1.402       .  A
C2915      F2922   1.357       .  S
C2916      C2917   1.410       .  A
C2916      H2921   1.083       .  S
C2917      C2918   1.411       .  A
C2918      F2919   1.357       .  S
C2923      C2928   1.397       .  A
C2923      H2930   1.083       .  S
C2924      C2925   1.403       .  A
C2925      F2932   1.357       .  S
C2926      C2927   1.408       .  A
C2926      H2931   1.083       .  S
C2927      C4062   1.411       .  A
C2927      C3859   1.488       .  S
C2928      C4061   1.407       .  A
C2928      F2929   1.357       .  S
C2933      C2934   1.406       .  A
C2933      C2938   1.402       .  A
C2933      H2940   1.083       .  S
C2934      C2935   1.412       .  A
C2935      C2936   1.395       .  A
C2935      F2942   1.358       .  S
C2936      C2937   1.400       .  A
C2936      H2941   1.084       .  S
C2937      C2938   1.407       .  A
C2938      F2939   1.357       .  S
C2943      C2944   1.406       .  A
C2943      C2948   1.396       .  A
C2943      H2950   1.083       .  S
C2944      C2945   1.411       .  A
C2945      C2946   1.400       .  A
C2945      F2952   1.357       .  S
C2946      C2947   1.403       .  A
C2946      H2951   1.083       .  S
C2947      C2948   1.404       .  A
C2948      F2949   1.358       .  S
C2953      C2954   1.406       .  A
C2953      C2958   1.398       .  A
C2953      H2960   1.083       .  S
C2954      C2955   1.405       .  A
C2955      C2956   1.393       .  A
C2955      F2962   1.358       .  S
C2956      C2957   1.407       .  A
C2956      H2961   1.083       .  S
C2957      C2958   1.407       .  A
C2958      F2959   1.357       .  S
C2963      C2964   1.397       .  A
C2963      C2968   1.394       .  A
C2963      H2970   1.084       .  S
C2964      C2965   1.401       .  A
C2965      C2966   1.396       .  A
C2965      F2972   1.358       .  S
C2966      C2967   1.408       .  A
C2966      H2971   1.083       .  S
C2967      C2968   1.413       .  A
C2968      F2969   1.357       .  S
C2973      C2974   1.404       .  A
C2973      C2978   1.394       .  A
C2973      H2980   1.083       .  S
C2974      C2975   1.412   1_545  A
C2975      C2976   1.395       .  A
C2975      F2982   1.358       .  S
C2976      C2977   1.396   1_565  A
C2976      H4115   1.083       .  S
C2977      C2978   1.402       .  A
C2978      F2979   1.358       .  S
H2981      C4110   1.083       .  S
C2983      C2984   1.408       .  A
C2983      C2988   1.403       .  A
C2983      H2990   1.083       .  S
C2984      C2985   1.402       .  A
C2985      C2986   1.395       .  A
C2985      F2992   1.358       .  S
C2986      C2987   1.408       .  A
C2986      H2991   1.083       .  S
C2987      C2988   1.406       .  A
C2988      F2989   1.357       .  S
C2993      C2994   1.406       .  A
C2993      C2998   1.405       .  A
C2993      H3000   1.083       .  S
C2994      C2995   1.410   1_655  A
C2995      C2996   1.393   1_455  A
C2996      C2997   1.404       .  A
C2996      H3001   1.083   1_655  S
C2997      C2998   1.415       .  A
C2998      F2999   1.358       .  S
C3003      C3004   1.406       .  A
C3003      C3008   1.395       .  A
C3003      H3010   1.083       .  S
C3004      C3005   1.408       .  A
C3006      H3011   1.083   1_455  S
C3007      C3008   1.405       .  A
C3008      F3009   1.358       .  S
C3013      C3014   1.402       .  A
C3013      C3018   1.400       .  A
C3013      H3020   1.083       .  S
C3014      C3015   1.408       .  A
C3015      C3016   1.400       .  A
C3015      F3022   1.357       .  S
C3016      C3017   1.405       .  A
C3016      H3021   1.083       .  S
C3017      C3018   1.412       .  A
C3018      F3019   1.357       .  S
C3023      C3024   1.404       .  A
C3023      C3028   1.396       .  A
C3023      H3030   1.083       .  S
C3024      C3025   1.409       .  A
C3025      C3026   1.399       .  A
C3025      F3032   1.358       .  S
C3026      C3027   1.404       .  A
C3026      H3031   1.083       .  S
C3027      C3028   1.407       .  A
C3028      F3029   1.358       .  S
C3033      C3034   1.404       .  A
C3033      C3038   1.398       .  A
C3033      H3040   1.083       .  S
C3034      C3035   1.411       .  A
C3035      C3036   1.400       .  A
C3035      F3042   1.357       .  S
C3036      C3037   1.403       .  A
C3036      H3041   1.083       .  S
C3037      C3038   1.409       .  A
C3038      F3039   1.358       .  S
C3043      C3044   1.400       .  A
C3043      C3048   1.392       .  A
C3044      C3045   1.408       .  A
C3045      C3046   1.399       .  A
C3045      F3052   1.357       .  S
C3046      C3047   1.405       .  A
C3046      H3051   1.083       .  S
C3047      C3048   1.411       .  A
C3048      F3049   1.358       .  S
C3053      C3054   1.401       .  A
C3053      C3058   1.397       .  A
C3053      H4194   1.084       .  S
C3054      C3055   1.402       .  A
C3054      C3652   1.471       .  S
C3055      C3056   1.397       .  A
C3055      F3062   1.358       .  S
C3056      C3057   1.407       .  A
C3056      H3061   1.083       .  S
C3057      C3058   1.409       .  A
C3058      F3059   1.358       .  S
H3060      C4187   1.084       .  S
C3063      C3068   1.397       .  A
C3063      H3070   1.083       .  S
C3064      C3065   1.404       .  A
C3065      C3066   1.395       .  A
C3065      F3072   1.358   1_545  S
C3066      H3071   1.084   1_545  S
C3067      C3068   1.402       .  A
C3068      F3069   1.358       .  S
C3073      C3074   1.405       .  A
C3073      C3078   1.402       .  A
C3073      H3080   1.083       .  S
C3074      C3075   1.411       .  A
C3075      C3076   1.393       .  A
C3076      C3077   1.398       .  A
C3076      H3081   1.084       .  S
C3077      C3078   1.407       .  A
C3078      F3079   1.358       .  S
C3083      C3084   1.401       .  A
C3083      C3088   1.394       .  A
C3083      H3090   1.084       .  S
C3084      C3085   1.403       .  A
C3085      C3086   1.402       .  A
C3085      F3092   1.357       .  S
C3086      C3087   1.410       .  A
C3086      H3091   1.083       .  S
C3087      C3088   1.412       .  A
C3088      F3089   1.357       .  S
C3093      C3094   1.408       .  A
C3093      C3098   1.398       .  A
C3093      H3100   1.083       .  S
C3094      C3095   1.409       .  A
C3095      C3096   1.395       .  A
C3095      F3102   1.357       .  S
C3096      C3097   1.402       .  A
C3096      H3101   1.083       .  S
C3097      C3098   1.404       .  A
C3098      F3099   1.358       .  S
C3103      C3104   1.405       .  A
C3103      C3108   1.400       .  A
C3103      H3110   1.083       .  S
C3104      C3105   1.404       .  A
C3105      C3106   1.397       .  A
C3105      F3112   1.358       .  S
C3106      C3107   1.407       .  A
C3106      H3111   1.083       .  S
C3107      C3108   1.407       .  A
C3108      F3109   1.357       .  S
C3113      C3114   1.400       .  A
C3113      C3118   1.398       .  A
C3113      H3120   1.084       .  S
C3114      C3115   1.402       .  A
C3115      C3116   1.399       .  A
C3115      F3122   1.357       .  S
C3116      C3117   1.407       .  A
C3116      H3121   1.083       .  S
C3117      C3118   1.413       .  A
C3118      F3119   1.358       .  S
C3123      C3124   1.405       .  A
C3123      C3128   1.400       .  A
C3123      H3130   1.083       .  S
C3124      C3125   1.406       .  A
C3125      C3126   1.398       .  A
C3125      F3132   1.357       .  S
C3126      C3127   1.406       .  A
C3126      H3131   1.083       .  S
C3127      C3128   1.409       .  A
C3128      F3129   1.358       .  S
C3133      C3134   1.407       .  A
C3133      C3138   1.395       .  A
C3133      H3140   1.083       .  S
C3134      C3135   1.408       .  A
C3135      C3136   1.396       .  A
C3135      F3142   1.357       .  S
C3136      C3137   1.404       .  A
C3136      H3141   1.083       .  S
C3137      C3138   1.407       .  A
C3138      F3139   1.358       .  S
C3143      C3144   1.402       .  A
C3143      C3148   1.396       .  A
C3143      H3150   1.083       .  S
C3144      C3145   1.404       .  A
C3145      C3146   1.396       .  A
C3145      F3152   1.358       .  S
C3146      C3147   1.407       .  A
C3146      H3151   1.083       .  S
C3147      C3148   1.409       .  A
C3148      F3149   1.357       .  S
C3153      C3154   1.401       .  A
C3153      H3160   1.084       .  S
C3155      C3156   1.394       .  A
C3155      F3162   1.358       .  S
C3156      C3157   1.410       .  A
C3156      H3161   1.082       .  S
C3157      C3158   1.410   1_655  A
C3158      F3159   1.357       .  S
C3163      C3164   1.404       .  A
C3163      C3168   1.393       .  A
C3163      H3170   1.083       .  S
C3164      C3165   1.406       .  A
C3165      C3166   1.399       .  A
C3165      F3172   1.357   1_545  S
C3166      C3167   1.405       .  A
C3166      H3171   1.083   1_545  S
C3167      C3168   1.406       .  A
C3168      F3169   1.357       .  S
C3173      C3174   1.400       .  A
C3173      C3178   1.396       .  A
C3173      H3180   1.083       .  S
C3174      C3175   1.404       .  A
C3175      C3176   1.394       .  A
C3175      F3182   1.358       .  S
C3176      C3177   1.407       .  A
C3176      H3181   1.083       .  S
C3177      C3178   1.412       .  A
C3178      F3179   1.356       .  S
C3183      C3184   1.404       .  A
C3183      C3188   1.393       .  A
C3183      H4324   1.083       .  S
C3184      C3185   1.408       .  A
C3184      C3544   1.483       .  S
C3185      C3186   1.401       .  A
C3185      F3192   1.357       .  S
C3186      C3187   1.405       .  A
C3186      H3191   1.083       .  S
C3187      C3188   1.407       .  A
C3188      F3189   1.358       .  S
H3190      C4317   1.083   1_545  S
C3193      C3194   1.402       .  A
C3193      C3198   1.393       .  A
C3193      H3200   1.084       .  S
C3194      C3195   1.403       .  A
C3195      C4330   1.392       .  A
C3195      F3202   1.357       .  S
C3196      C4329   1.397   1_545  A
C3196      C3197   1.408   1_545  A
C3196      H3201   1.083       .  S
C3197      C4332   1.408       .  A
C3198      C4331   1.411       .  A
C3198      F3199   1.358   1_655  S
C3203      C3204   1.402       .  A
C3203      C3208   1.395       .  A
C3203      H3210   1.084       .  S
C3204      C3205   1.405       .  A
C3205      C3206   1.401       .  A
C3205      F3212   1.358       .  S
C3206      C3207   1.410       .  A
C3206      H3211   1.083       .  S
C3207      C3208   1.412       .  A
C3208      F3209   1.357       .  S
C3213      C3214   1.407       .  A
C3213      C3218   1.392       .  A
C3213      H3220   1.083       .  S
C3214      C3215   1.414       .  A
C3215      C3216   1.404       .  A
C3215      F3222   1.357       .  S
C3216      C3217   1.402       .  A
C3216      H3221   1.083       .  S
C3217      C3218   1.404       .  A
C3218      F3219   1.358       .  S
C3223      C3228   1.401       .  A
C3225      C3226   1.390       .  A
C3225      F3232   1.356       .  S
C3226      C3227   1.401       .  A
C3226      H3231   1.083       .  S
C3227      C3228   1.410       .  A
C3228      F3229   1.357       .  S
C3233      C3234   1.404       .  A
C3233      C3238   1.400       .  A
C3233      H3240   1.083       .  S
C3234      C3235   1.403       .  A
C3235      C3236   1.390       .  A
C3235      F3242   1.358       .  S
C3236      C3237   1.407       .  A
C3236      H3241   1.083       .  S
C3237      C3238   1.409       .  A
C3238      F3239   1.357       .  S
C3243      C3244   1.403       .  A
C3243      C3248   1.391       .  A
C3243      H3250   1.083       .  S
C3244      C3245   1.411       .  A
C3245      C3246   1.398       .  A
C3245      F3252   1.357       .  S
C3246      C3247   1.403       .  A
C3246      H3251   1.083       .  S
C3247      C3248   1.404       .  A
C3248      F3249   1.357       .  S
C3253      C3254   1.408       .  A
C3253      C3258   1.401       .  A
C3253      H3260   1.083       .  S
C3254      C3255   1.411       .  A
C3255      C3256   1.391       .  A
C3255      F3262   1.356       .  S
C3256      C3257   1.400       .  A
C3256      H3261   1.083       .  S
C3257      C3258   1.409       .  A
C3258      F3259   1.358       .  S
C3263      C3264   1.410       .  A
C3263      C3268   1.393       .  A
C3263      H3270   1.082       .  S
C3264      C3265   1.412       .  A
C3265      C3266   1.402       .  A
C3265      F3272   1.357       .  S
C3266      C3267   1.402       .  A
C3266      H3271   1.083       .  S
C3267      C3268   1.399       .  A
C3268      F3269   1.358       .  S
C3273      C3274   1.406       .  A
C3273      C3278   1.399       .  A
C3273      H3280   1.083       .  S
C3274      C3275   1.409       .  A
C3275      C3276   1.397       .  A
C3275      F3282   1.357       .  S
C3276      C3277   1.403       .  A
C3276      H3281   1.083       .  S
C3277      C3278   1.407       .  A
C3278      F3279   1.358       .  S
C3283      C3284   1.402       .  A
C3283      C3288   1.397       .  A
C3283      H3290   1.084       .  S
C3284      C3285   1.405       .  A
C3285      C3286   1.397       .  A
C3285      F3292   1.357       .  S
C3286      C3287   1.405       .  A
C3286      H3291   1.083       .  S
C3287      C3288   1.412       .  A
C3288      F3289   1.358       .  S
C3293      C3294   1.402       .  A
C3293      C3298   1.396       .  A
C3293      H3300   1.083   1_545  S
C3294      C3295   1.410       .  A
C3295      C3296   1.404       .  A
C3295      F3302   1.357       .  S
C3296      C3297   1.408       .  A
C3296      H3301   1.083       .  S
C3297      C3298   1.413       .  A
C3298      F3299   1.357       .  S
C3303      C3304   1.401       .  A
C3303      C3308   1.400       .  A
C3303      H3310   1.083       .  S
C3304      C3305   1.401       .  A
C3305      C3306   1.394       .  A
C3305      F4446   1.358       .  S
C3306      C3307   1.405       .  A
C3306      H4445   1.083       .  S
C3307      C3308   1.410       .  A
C3308      F3309   1.357   1_655  S
H3311      C4440   1.083       .  S
F3312      C4439   1.358       .  S
C3313      C3314   1.407       .  A
C3313      C3318   1.394       .  A
C3313      H3320   1.083       .  S
C3314      C3315   1.406       .  A
C3315      C3316   1.399       .  A
C3315      F3322   1.357       .  S
C3316      C3317   1.407       .  A
C3316      H3321   1.083       .  S
C3317      C3318   1.405       .  A
C3318      F3319   1.358       .  S
C3323      C3324   1.403       .  A
C3323      C3328   1.397       .  A
C3323      H3330   1.083       .  S
C3324      C3325   1.406       .  A
C3325      C3326   1.394       .  A
C3325      F3332   1.357       .  S
C3326      C3327   1.404       .  A
C3326      H3331   1.083       .  S
C3327      C3328   1.410       .  A
C3328      F3329   1.357       .  S
C3333      C3334   1.405       .  A
C3333      C3338   1.393       .  A
C3333      H3340   1.083       .  S
C3334      C4469   1.405       .  A
C3335      C4468   1.402       .  A
C3335      C3336   1.401       .  A
C3335      F3342   1.357       .  S
C3336      C4471   1.410       .  A
C3336      H3341   1.083       .  S
C3337      C4470   1.409       .  A
C3337      C3338   1.409       .  A
C3338      F3339   1.358       .  S
C3343      C3344   1.400       .  A
C3343      C3348   1.394       .  A
C3343      H3350   1.084       .  S
C3344      C3345   1.408       .  A
C3345      C3346   1.398       .  A
C3345      F3352   1.358       .  S
C3346      C3347   1.404       .  A
C3346      H3351   1.083       .  S
C3347      C3348   1.409       .  A
C3348      F3349   1.357       .  S
C3353      C3354   1.404       .  A
C3353      C3358   1.391       .  A
C3353      H3360   1.084       .  S
C3354      C3355   1.406       .  A
C3355      C3356   1.399       .  A
C3355      F3362   1.357       .  S
C3356      C3357   1.402       .  A
C3356      H3361   1.083       .  S
C3357      C3358   1.401       .  A
C3358      F3359   1.358       .  S
C3363      C3364   1.406       .  A
C3363      C3368   1.396       .  A
C3363      H3370   1.083       .  S
C3364      C3365   1.412       .  A
C3365      C3366   1.390       .  A
C3365      F3372   1.357       .  S
C3366      C3367   1.396       .  A
C3366      H3371   1.084       .  S
C3367      C3368   1.403       .  A
C3368      F3369   1.358       .  S
C3373      C3374   1.407       .  A
C3373      C3378   1.403       .  A
C3373      H3380   1.083       .  S
C3374      C3375   1.408       .  A
C3375      C3376   1.395       .  A
C3375      F3382   1.357       .  S
C3376      C3377   1.401       .  A
C3376      H3381   1.083       .  S
C3377      C3378   1.409       .  A
C3378      F3379   1.358       .  S
C3383      C3384   1.399       .  A
C3383      C3388   1.394       .  A
C3383      H3390   1.084       .  S
C3384      C3385   1.406       .  A
C3385      C3386   1.401       .  A
C3385      F3392   1.357       .  S
C3386      C3387   1.406       .  A
C3386      H3391   1.083       .  S
C3387      C3388   1.411       .  A
C3388      F3389   1.358       .  S
C3393      C3394   1.406       .  A
C3393      C3398   1.400       .  A
C3393      H3400   1.083       .  S
C3394      C3395   1.408       .  A
C3395      C3396   1.395       .  A
C3395      F3402   1.358       .  S
C3396      C3397   1.403       .  A
C3396      H3401   1.083       .  S
C3397      C3398   1.407       .  A
C3403      C3404   1.401       .  A
C3403      C3408   1.401       .  A
C3403      C4518   1.475       .  S
C3404      C3405   1.404       .  A
C3404      H3409   1.084       .  S
C3405      C3406   1.403       .  A
C3405      C4531   1.476       .  S
C3406      C3407   1.400       .  A
C3407      C3408   1.402       .  A
C3408      H3411   1.084       .  S
C3412      C3413   1.406       .  A
C3412      C3417   1.404       .  A
C3412      C4501   1.474       .  S
C3413      C3414   1.404       .  A
C3413      H3418   1.084       .  S
C3414      C3415   1.398       .  A
C3414      C4491   1.474       .  S
C3415      C3416   1.399       .  A
C3415      H3419   1.085       .  S
C3416      C3417   1.400       .  A
C3416      C4478   1.480       .  S
C3417      H3420   1.084       .  S
C3421      C3426   1.399   1_545  A
C3421      C4468   1.470       .  S
C3422      C3423   1.402       .  A
C3422      H3427   1.084       .  S
C3423      C3424   1.401       .  A
C3423      C4451   1.481       .  S
C3424      H3428   1.084       .  S
C3425      C3426   1.402       .  A
C3425      C4458   1.473       .  S
C3426      H3429   1.084       .  S
C3430      C4508   1.485       .  S
C3430      N3431   1.360       .  A
C3430      N3435   1.366       .  A
N3431      C3432   1.355       .  A
C3432      C4481   1.479       .  S
C3432      N3433   1.352       .  A
N3433      C3434   1.355       .  A
C3434      C4448   1.483       .  S
C3434      N3435   1.363       .  A
C3436      C3441   1.407       .  A
C3436      C4428   1.480       .  S
C3437      C3438   1.403       .  A
C3437      H3442   1.084       .  S
C3438      C3439   1.395       .  A
C3438      C4418   1.480       .  S
C3439      C3440   1.397       .  A
C3439      H3443   1.085       .  S
C3440      C4438   1.471       .  S
C3441      H3444   1.084       .  S
C3445      C3446   1.402       .  A
C3445      C3450   1.405       .  A
C3445      C4408   1.469       .  S
C3446      C3447   1.395       .  A
C3446      H3451   1.084       .  S
C3447      C3448   1.397       .  A
C3447      C4401   1.461       .  S
C3448      C3449   1.399       .  A
C3448      H3452   1.084       .  S
C3449      C3450   1.403       .  A
C3449      C4391   1.481       .  S
C3450      H3453   1.084       .  S
C3454      C4378   1.479       .  S
C3454      N3455   1.357       .  A
C3454      N3459   1.357       .  A
N3455      C3456   1.358       .  A
C3456      C4388   1.483       .  S
C3456      N3457   1.359       .  A
N3457      C3458   1.357       .  A
C3458      C4421   1.482       .  S
C3458      N3459   1.355       .  A
C3460      C3461   1.404       .  A
C3460      C3465   1.404       .  A
C3460      C4368   1.482       .  S
C3461      C3462   1.403       .  A
C3461      H3466   1.084       .  S
C3462      C3463   1.398       .  A
C3462      C4361   1.472       .  S
C3463      C3464   1.400       .  A
C3463      H3467   1.084       .  S
C3464      C3465   1.404       .  A
C3464      C4381   1.472       .  S
C3465      H3468   1.084       .  S
Zr3469     O3470   2.440       .  S
Zr3469     O3472   2.436       .  S
Zr3469     O3478   2.387   1_565  S
Zr3469     O3479   2.406       .  S
Zr3469     O3480   2.394       .  S
O3470      H3526   0.990       .  S
O3470      H3534   0.991       .  S
O3471      C3491   1.281       .  A
O3472      C3493   1.285   1_565  A
O3473     Zr3483   2.413   1_554  S
O3473      C3492   1.281       .  A
O3474     Zr3482   2.421       .  S
O3475      C3492   1.285       .  A
O3476     Zr3484   2.410       .  S
O3476      C3491   1.280       .  A
O3477     Zr3482   2.392       .  S
O3477     Zr3484   2.370       .  S
O3478      H3513   0.964       .  S
O3479     Zr3499   2.397   1_554  S
O3479      H3516   0.967       .  S
O3480     Zr3499   2.387   1_554  S
Zr3481     O3500   2.437       .  S
Zr3481     O3508   2.408       .  S
Zr3481     O3489   2.372       .  S
Zr3481     O3490   2.383       .  S
Zr3482     O3494   2.437       .  S
Zr3482     O3495   2.429   1_554  S
Zr3482     O3488   2.402   1_554  S
Zr3483     O3485   2.435       .  S
Zr3483     O3507   2.438       .  S
Zr3483     O3509   2.412       .  S
Zr3484     O3510   2.436   1_554  S
Zr3484     O3511   2.434   1_554  S
Zr3484     O3486   2.437       .  S
Zr3484     O3487   2.392   1_554  S
Zr3484     O3488   2.390   1_554  S
O3485      H3522   0.991       .  S
O3486      H3517   0.990       .  S
O3486      H3531   0.991       .  S
O3488      H3514   0.964       .  S
O3489     Zr3499   2.377       .  S
O3490     Zr3499   2.382       .  S
O3490      H3515   0.959       .  S
C3491      C4528   1.473       .  S
C3492      C4498   1.481       .  S
C3493      C4471   1.482       .  S
O3494      H3530   0.990       .  S
O3495      C3497   1.283       .  A
O3496      C3497   1.282       .  A
C3497      C4411   1.475       .  S
O3498     Zr3499   2.435   1_554  S
O3498      H3527   0.991       .  S
Zr3499     O3502   2.435   1_556  S
Zr3499     O3503   2.438       .  S
Zr3499     O3504   2.424       .  S
O3500      C3505   1.285       .  A
O3501      H3533   0.990       .  S
O3502      H3519   0.990   1_554  S
O3503      H3523   0.989       .  S
O3503      H3532   0.990       .  S
O3504      C3505   1.282       .  A
C3505      C4371   1.483       .  S
O3506      H3525   0.990       .  S
O3506      H3529   0.991       .  S
O3507      H3521   0.990       .  S
O3507      H3528   0.989       .  S
O3508      C3512   1.280       .  A
O3510      H3520   0.991   1_556  S
O3511      H3524   0.990       .  S
C3535      C3536   1.407       .  A
C3535      C3540   1.404       .  A
C3535      C4338   1.477       .  S
C3536      C3537   1.406       .  A
C3536      H3541   1.084       .  S
C3537      C3538   1.400       .  A
C3537      C4351   1.477       .  S
C3538      C3539   1.399       .  A
C3538      H3542   1.084       .  S
C3539      C3540   1.399       .  A
C3539      C4328   1.478       .  S
C3540      H3543   1.084       .  S
C3544      C3545   1.408       .  A
C3544      C3549   1.406       .  A
C3545      C3546   1.405       .  A
C3545      H3550   1.083       .  S
C3546      C3547   1.396       .  A
C3546      C4308   1.474       .  S
C3547      C3548   1.397       .  A
C3547      H3551   1.085       .  S
C3548      C3549   1.399       .  A
C3548      C4298   1.473       .  S
C3549      H3552   1.084       .  S
C3553      C3554   1.406       .  A
C3553      C3558   1.407       .  A
C3553      C4278   1.478       .  S
C3554      C3555   1.399       .  A
C3554      H3559   1.084       .  S
C3555      C3556   1.400       .  A
C3555      C4288   1.471       .  S
C3556      C3557   1.402       .  A
C3557      C3558   1.403       .  A
C3557      C4271   1.483       .  S
C3558      H3561   1.084       .  S
C3562      C4301   1.475       .  S
C3562      N3563   1.355       .  A
C3562      N3567   1.359       .  A
N3563      C3564   1.354       .  A
C3564      N3565   1.358       .  A
N3565      C3566   1.359       .  A
C3566      C4268   1.484       .  S
C3566      N3567   1.358       .  A
Zr3568     O3569   2.440       .  S
Zr3568     O3570   2.449       .  S
Zr3568     O3571   2.430       .  S
Zr3568     O3574   2.414       .  S
Zr3568     O3576   2.374       .  S
Zr3568     O3577   2.381       .  S
Zr3568     O3578   2.411       .  S
Zr3568     O3579   2.403       .  S
O3569      H3625   0.990       .  S
O3569      H3633   0.991       .  S
O3570      C3590   1.287       .  A
O3571      C3592   1.282       .  A
O3572     Zr3582   2.428       .  S
O3572      C3591   1.284       .  A
O3573     Zr3581   2.422       .  S
O3573      C3592   1.283       .  A
O3574      C3591   1.281       .  A
O3575     Zr3583   2.401       .  S
O3575      C3590   1.278       .  A
O3576     Zr3581   2.388       .  S
O3576     Zr3583   2.378       .  S
O3577     Zr3582   2.396       .  S
O3577     Zr3583   2.378       .  S
O3577      H3612   0.967       .  S
O3578     Zr3581   2.397       .  S
O3578     Zr3598   2.392       .  S
O3578      H3615   0.963       .  S
O3579     Zr3582   2.387       .  S
O3579     Zr3598   2.393       .  S
Zr3580     O3605   2.449       .  S
Zr3580     O3599   2.432       .  S
Zr3580     O3607   2.423       .  S
Zr3580     O3595   2.417       .  S
Zr3580     O3586   2.396       .  S
Zr3580     O3587   2.398       .  S
Zr3580     O3588   2.376       .  S
Zr3580     O3589   2.377       .  S
Zr3581     O3600   2.437       .  S
Zr3581     O3593   2.435       .  S
Zr3581     O3594   2.421       .  S
Zr3581     O3587   2.392       .  S
Zr3581     O3588   2.389       .  S
Zr3582     O3584   2.436   1_655  S
Zr3582     O3606   2.437       .  S
Zr3582     O3608   2.432       .  S
Zr3582     O3586   2.388       .  S
Zr3582     O3589   2.391       .  S
Zr3583     O3609   2.437       .  S
Zr3583     O3610   2.436       .  S
Zr3583     O3585   2.439       .  S
Zr3583     O3586   2.391       .  S
Zr3583     O3587   2.388       .  S
O3585      H3616   0.991       .  S
O3585      H3630   0.990       .  S
O3587      H3613   0.970       .  S
O3588     Zr3598   2.372       .  S
O3589     Zr3598   2.375       .  S
O3589      H3614   0.959       .  S
C3590      C4341   1.488       .  S
C3591      C4291   1.481       .  S
C3592      C4311   1.482       .  S
O3593      H3629   0.990       .  S
O3594      C3596   1.283       .  A
O3595      C3596   1.282       .  A
C3596      C4398   1.478       .  S
O3597     Zr3598   2.439       .  S
O3597      H3626   0.990       .  S
Zr3598     O3601   2.438       .  S
Zr3598     O3602   2.438       .  S
Zr3598     O3603   2.430       .  S
O3599      C3604   1.285       .  A
O3600      H3617   0.991       .  S
O3600      H3632   0.990       .  S
O3601      H3618   0.991       .  S
O3602      H3622   0.990       .  S
O3602      H3631   0.990       .  S
O3603      C3604   1.283       .  A
C3604      C4431   1.492       .  S
O3605      H3624   0.990       .  S
O3605      H3628   0.989       .  S
O3606      H3627   0.990   1_655  S
O3607      C3611   1.283       .  A
O3608      C3611   1.286       .  A
O3609      H3619   0.990       .  S
O3610      H3623   0.990       .  S
C3611      C4358   1.483   1_655  S
C3634      C3635   1.404       .  A
C3634      C3639   1.408       .  A
C3634      C4258   1.484       .  S
C3635      C3636   1.403       .  A
C3635      H3640   1.084       .  S
C3636      C3637   1.401       .  A
C3636      C4238   1.476       .  S
C3637      C3638   1.402       .  A
C3637      H3641   1.084       .  S
C3638      C3639   1.407       .  A
C3638      C4248   1.479       .  S
C3639      H3642   1.084       .  S
C3643      C3644   1.402       .  A
C3643      C3648   1.404       .  A
C3643      C4218   1.485       .  S
C3644      C3645   1.399       .  A
C3644      H3649   1.084       .  S
C3645      C3646   1.401       .  A
C3645      C4211   1.481       .  S
C3646      C3647   1.409       .  A
C3646      H3650   1.084       .  S
C3647      C3648   1.407       .  A
C3647      C4231   1.477       .  S
C3648      H3651   1.083       .  S
C3652      C3653   1.406       .  A
C3652      C3657   1.402       .  A
C3653      C3654   1.401       .  A
C3653      H3658   1.084       .  S
C3654      C3655   1.399       .  A
C3654      C4178   1.477       .  S
C3655      C3656   1.399       .  A
C3656      C3657   1.401       .  A
C3656      C4198   1.473       .  S
C3661      C4241   1.484       .  S
C3661      N3662   1.362       .  A
C3661      N3666   1.361       .  A
N3662      C3663   1.358       .  A
C3663      C4181   1.480       .  S
C3663      N3664   1.355       .  A
N3664      C3665   1.356       .  A
C3665      N3666   1.358       .  A
Zr3667     O3668   2.439       .  S
Zr3667     O3669   2.429       .  S
Zr3667     O3670   2.431       .  S
Zr3667     O3673   2.420       .  S
Zr3667     O3675   2.380       .  S
Zr3667     O3676   2.376       .  S
Zr3667     O3677   2.404       .  S
Zr3667     O3678   2.403       .  S
O3668      H3724   0.990       .  S
O3668      H3732   0.990       .  S
O3669      C3689   1.283       .  A
O3670      C3691   1.284       .  A
O3671     Zr3681   2.431       .  S
O3671      C3690   1.285       .  A
O3672     Zr3680   2.434       .  S
O3672      C3691   1.286       .  A
O3673      C3690   1.284       .  A
O3674     Zr3682   2.415       .  S
O3674      C3689   1.281       .  A
O3675     Zr3680   2.387       .  S
O3675     Zr3682   2.379       .  S
O3676     Zr3681   2.383       .  S
O3676     Zr3682   2.366       .  S
O3676      H3711   0.966       .  S
O3677     Zr3680   2.396       .  S
O3677     Zr3697   2.393       .  S
O3677      H3714   0.966       .  S
O3678     Zr3681   2.390       .  S
O3678     Zr3697   2.403       .  S
Zr3679     O3704   2.443       .  S
Zr3679     O3698   2.433       .  S
Zr3679     O3706   2.433       .  S
Zr3679     O3694   2.434       .  S
Zr3679     O3685   2.398       .  S
Zr3679     O3686   2.406       .  S
Zr3679     O3687   2.380       .  S
Zr3679     O3688   2.382       .  S
Zr3680     O3699   2.436       .  S
Zr3680     O3692   2.436       .  S
Zr3680     O3693   2.420       .  S
Zr3680     O3686   2.401       .  S
Zr3680     O3687   2.398       .  S
Zr3681     O3683   2.435       .  S
Zr3681     O3705   2.435       .  S
Zr3681     O3707   2.423       .  S
Zr3681     O3685   2.391       .  S
Zr3681     O3688   2.386       .  S
Zr3682     O3708   2.434       .  S
Zr3682     O3709   2.435       .  S
Zr3682     O3684   2.436       .  S
Zr3682     O3685   2.387       .  S
Zr3682     O3686   2.388       .  S
O3683      H3720   0.990       .  S
O3684      H3715   0.991       .  S
O3684      H3729   0.990       .  S
O3686      H3712   0.970       .  S
O3687     Zr3697   2.376       .  S
O3688     Zr3697   2.373       .  S
O3688      H3713   0.966       .  S
C3689      C4321   1.477       .  S
C3690      C4281   1.480       .  S
C3691      C4348   1.488       .  S
O3692      H3728   0.989       .  S
O3693      C3695   1.283       .  A
O3694      C3695   1.285       .  A
C3695      C4191   1.480       .  S
O3696     Zr3697   2.439       .  S
O3696      H3725   0.990       .  S
Zr3697     O3700   2.437       .  S
Zr3697     O3701   2.439       .  S
Zr3697     O3702   2.434       .  S
O3698      C3703   1.285       .  A
O3699      H3716   0.991       .  S
O3699      H3731   0.989       .  S
O3700      H3717   0.990       .  S
O3701      H3721   0.990       .  S
O3701      H3730   0.990       .  S
O3702      C3703   1.285       .  A
C3703      C4251   1.489       .  S
O3704      H3723   0.991       .  S
O3704      H3727   0.990       .  S
O3705      H3719   0.990       .  S
O3705      H3726   0.990       .  S
O3706      C3710   1.285       .  A
O3707      C3710   1.284       .  A
O3708      H3718   0.990       .  S
O3709      H3722   0.990       .  S
C3710      C4221   1.487       .  S
C3733      C3734   1.403       .  A
C3733      C3738   1.403       .  A
C3733      C4168   1.479       .  S
C3734      C3735   1.400       .  A
C3734      H3739   1.084       .  S
C3735      C3736   1.400       .  A
C3735      C4148   1.472       .  S
C3736      C3737   1.402       .  A
C3736      H3740   1.084       .  S
C3737      C3738   1.404       .  A
C3737      C4161   1.475       .  S
C3738      H3741   1.084       .  S
C3742      C3747   1.405       .  A
C3742      C4128   1.482   1_455  S
C3743      C3744   1.403       .  A
C3743      H3748   1.084       .  S
C3744      C3745   1.399       .  A
C3744      C4118   1.475       .  S
C3745      C3746   1.403       .  A
C3745      H3749   1.084       .  S
C3746      C4141   1.475       .  S
C3747      H3750   1.084   1_455  S
C3751      C3752   1.405       .  A
C3751      C3756   1.404       .  A
C3751      C4098   1.475       .  S
C3752      C3753   1.404       .  A
C3752      H3757   1.084       .  S
C3753      C4108   1.477       .  S
C3754      C3755   1.396       .  A
C3754      H3758   1.084       .  S
C3755      C4088   1.470       .  S
C3756      H3759   1.084       .  S
C3760      C4151   1.479       .  S
C3760      N3761   1.362       .  A
C3760      N3765   1.361       .  A
N3761      C3762   1.359       .  A
C3762      C4121   1.472       .  S
C3762      N3763   1.351       .  A
N3763      C3764   1.350       .  A
C3764      C4091   1.470       .  S
C3764      N3765   1.355       .  A
Zr3766     O3768   2.442       .  S
Zr3766     O3772   2.435       .  S
Zr3766     O3774   2.380       .  S
Zr3766     O3775   2.383       .  S
Zr3766     O3777   2.397       .  S
O3767      H3823   0.990       .  S
O3767      H3831   0.989   1_545  S
O3768      C3788   1.284       .  A
O3769      C3790   1.286       .  A
O3770     Zr3780   2.418       .  S
O3770      C3789   1.282       .  A
O3771      C3790   1.282       .  A
O3772      C3789   1.284       .  A
O3773     Zr3781   2.429       .  S
O3773      C3788   1.283       .  A
O3774     Zr3779   2.398       .  S
O3774     Zr3781   2.378       .  S
O3775     Zr3780   2.399       .  S
O3775     Zr3781   2.375       .  S
O3775      H3810   0.958       .  S
O3776     Zr3796   2.386       .  S
O3776      H3813   0.963       .  S
O3777     Zr3780   2.383       .  S
Zr3778     O3803   2.442       .  S
Zr3778     O3797   2.462       .  S
Zr3778     O3805   2.449       .  S
Zr3778     O3793   2.441       .  S
Zr3778     O3784   2.409       .  S
Zr3778     O3785   2.420       .  S
Zr3778     O3786   2.376       .  S
Zr3778     O3787   2.379       .  S
Zr3779     O3791   2.438       .  S
Zr3779     O3792   2.420       .  S
Zr3779     O3785   2.399       .  S
Zr3779     O3786   2.399       .  S
Zr3780     O3804   2.439       .  S
Zr3780     O3806   2.419       .  S
Zr3780     O3784   2.390       .  S
Zr3780     O3787   2.395       .  S
Zr3781     O3807   2.436       .  S
Zr3781     O3808   2.436       .  S
Zr3781     O3783   2.437       .  S
Zr3781     O3784   2.401       .  S
Zr3781     O3785   2.397       .  S
O3782      H3819   0.990       .  S
O3783      H3814   0.990       .  S
O3783      H3828   0.990       .  S
O3785      H3811   0.964       .  S
O3787      H3812   0.966       .  S
C3788      C4261   1.492       .  S
C3789      C4201   1.465       .  S
C3790      C4228   1.475       .  S
O3791      H3827   0.990       .  S
O3792      C3794   1.282       .  A
O3793      C3794   1.284       .  A
C3794      C4111   1.462       .  S
O3795      H3824   0.990   1_455  S
Zr3796     O3799   2.439       .  S
O3798      H3815   0.991       .  S
O3798      H3830   0.990       .  S
O3800      H3820   0.990       .  S
O3800      H3829   0.990       .  S
O3803      H3822   0.991       .  S
O3803      H3826   0.990       .  S
O3804      H3818   0.990       .  S
O3804      H3825   0.989       .  S
O3805      C3809   1.287       .  A
O3806      C3809   1.282       .  A
O3807      H3817   0.990       .  S
O3808      H3821   0.990       .  S
C3809      C4138   1.485       .  S
C3832      C3833   1.403   1_565  A
C3832      C3837   1.405       .  A
C3832      C4071   1.478       .  S
C3833      H3838   1.084       .  S
C3834      C3835   1.403       .  A
C3834      C4081   1.477       .  S
C3835      H3839   1.084       .  S
C3836      C3837   1.407   1_545  A
C3836      C4058   1.482       .  S
C3837      H3840   1.083       .  S
C3841      C3842   1.403       .  A
C3841      C3846   1.403       .  A
C3841      C4048   1.483       .  S
C3842      C3843   1.401       .  A
C3842      H3847   1.084       .  S
C3843      C3844   1.400       .  A
C3843      C4028   1.480       .  S
C3844      C3845   1.406       .  A
C3844      H3848   1.084       .  S
C3845      C3846   1.402       .  A
C3845      C4038   1.474       .  S
C3846      H3849   1.083       .  S
C3850      C3851   1.404       .  A
C3850      C3855   1.405       .  A
C3850      C4011   1.472       .  S
C3851      C3852   1.401       .  A
C3851      H3856   1.084       .  S
C3852      C3853   1.398       .  A
C3852      C4018   1.467       .  S
C3853      C3854   1.399       .  A
C3853      H3857   1.085       .  S
C3854      C3855   1.400       .  A
C3854      C4001   1.477       .  S
C3855      H3858   1.084       .  S
C3859      N3860   1.365       .  A
N3860      C3861   1.363       .  A
C3861      C4031   1.484       .  S
N3862      C3863   1.351   1_545  A
C3863      C3998   1.474       .  S
C3863      N3864   1.356       .  A
Zr3865     O3866   2.442       .  S
Zr3865     O3867   2.436       .  S
Zr3865     O3868   2.431       .  S
Zr3865     O3871   2.435       .  S
Zr3865     O3873   2.378       .  S
Zr3865     O3874   2.386       .  S
Zr3865     O3875   2.413       .  S
Zr3865     O3876   2.396       .  S
O3866      H3922   0.990       .  S
O3866      H3930   0.990       .  S
O3867      C3887   1.283       .  A
O3868      C3889   1.284       .  A
O3869     Zr3879   2.418       .  S
O3869      C3888   1.283       .  A
O3870     Zr3878   2.433       .  S
O3870      C3889   1.284       .  A
O3871      C3888   1.283       .  A
O3872     Zr3880   2.415       .  S
O3872      C3887   1.280       .  A
O3873     Zr3878   2.397       .  S
O3873     Zr3880   2.382       .  S
O3874     Zr3879   2.397       .  S
O3874     Zr3880   2.378       .  S
O3874      H3909   0.964       .  S
O3875     Zr3878   2.402       .  S
O3875     Zr3895   2.385       .  S
O3875      H3912   0.964       .  S
O3876     Zr3879   2.382       .  S
O3876     Zr3895   2.383       .  S
Zr3877     O3902   2.442       .  S
Zr3877     O3896   2.443       .  S
Zr3877     O3904   2.443       .  S
Zr3877     O3892   2.437       .  S
Zr3877     O3883   2.402       .  S
Zr3877     O3884   2.408       .  S
Zr3877     O3885   2.380       .  S
Zr3877     O3886   2.382       .  S
Zr3878     O3897   2.437       .  S
Zr3878     O3890   2.434       .  S
Zr3878     O3891   2.424       .  S
Zr3878     O3884   2.397       .  S
Zr3878     O3885   2.398       .  S
Zr3879     O3881   2.436       .  S
Zr3879     O3903   2.436       .  S
Zr3879     O3905   2.413       .  S
Zr3879     O3883   2.391       .  S
Zr3879     O3886   2.388       .  S
Zr3880     O3906   2.435       .  S
Zr3880     O3907   2.436       .  S
Zr3880     O3882   2.437       .  S
Zr3880     O3883   2.387       .  S
Zr3880     O3884   2.390       .  S
O3881      H3918   0.988       .  S
O3882      H3913   0.991       .  S
O3882      H3927   0.990       .  S
O3884      H3910   0.965       .  S
O3885     Zr3895   2.383       .  S
O3886     Zr3895   2.377       .  S
O3886      H3911   0.962       .  S
C3887      C4068   1.482       .  S
C3888      C4021   1.466       .  S
C3889      C4041   1.480       .  S
O3890      H3926   0.989       .  S
O3891      C3893   1.283       .  A
O3892      C3893   1.284       .  A
C3893      C4488   1.466       .  S
O3894     Zr3895   2.439       .  S
O3894      H3923   0.990       .  S
Zr3895     O3898   2.437       .  S
Zr3895     O3899   2.440       .  S
Zr3895     O3900   2.406       .  S
O3896      C3901   1.285       .  A
O3897      H3914   0.990       .  S
O3897      H3929   0.990       .  S
O3898      H3915   0.990       .  S
O3899      H3919   0.990       .  S
O3899      H3928   0.990       .  S
O3900      C3901   1.279       .  A
C3901      C4521   1.476       .  S
O3902      H3921   0.990       .  S
O3902      H3925   0.990       .  S
O3903      H3917   0.990       .  S
O3903      H3924   0.991       .  S
O3904      C3908   1.286       .  A
O3905      C3908   1.281       .  A
O3906      H3916   0.991       .  S
O3907      H3920   0.990       .  S
C3908      C4461   1.478       .  S
Zr3931     O3932   2.440       .  S
Zr3931     O3933   2.432       .  S
Zr3931     O3934   2.437       .  S
Zr3931     O3937   2.428       .  S
Zr3931     O3939   2.381       .  S
Zr3931     O3940   2.381       .  S
Zr3931     O3941   2.404       .  S
Zr3931     O3942   2.401       .  S
O3932      H3988   0.990       .  S
O3932      H3996   0.991       .  S
O3933      C3953   1.284       .  A
O3934      C3955   1.285       .  A
O3935     Zr3945   2.408       .  S
O3935      C3954   1.281       .  A
O3936     Zr3944   2.422       .  S
O3936      C3955   1.283       .  A
O3937      C3954   1.285       .  A
O3938     Zr3946   2.417       .  S
O3938      C3953   1.282       .  A
O3939     Zr3944   2.388       .  S
O3939     Zr3946   2.374       .  S
O3940     Zr3945   2.385       .  S
O3940     Zr3946   2.373       .  S
O3940      H3975   0.973       .  S
O3941     Zr3944   2.395       .  S
O3941     Zr3961   2.391       .  S
O3941      H3978   0.967       .  S
O3942     Zr3945   2.384       .  S
O3942     Zr3961   2.391       .  S
Zr3943     O3968   2.449       .  S
Zr3943     O3962   2.429       .  S
Zr3943     O3970   2.444       .  S
Zr3943     O3958   2.436       .  S
Zr3943     O3949   2.396       .  S
Zr3943     O3950   2.403       .  S
Zr3943     O3951   2.380       .  S
Zr3943     O3952   2.382       .  S
Zr3944     O3963   2.437       .  S
Zr3944     O3956   2.436       .  S
Zr3944     O3957   2.421       .  S
Zr3944     O3950   2.389       .  S
Zr3944     O3951   2.385       .  S
Zr3945     O3947   2.435       .  S
Zr3945     O3969   2.438       .  S
Zr3945     O3971   2.409       .  S
Zr3945     O3949   2.387       .  S
Zr3945     O3952   2.378       .  S
Zr3946     O3972   2.435       .  S
Zr3946     O3973   2.435       .  S
Zr3946     O3948   2.437       .  S
Zr3946     O3949   2.391       .  S
Zr3946     O3950   2.390       .  S
O3947      H3984   0.989       .  S
O3948      H3979   0.990       .  S
O3948      H3993   0.990       .  S
O3950      H3976   0.967       .  S
O3951     Zr3961   2.374       .  S
O3952     Zr3961   2.380       .  S
O3952      H3977   0.964       .  S
C3953      C4078   1.477       .  S
C3954      C4051   1.481       .  S
O3956      H3992   0.990       .  S
O3957      C3959   1.285       .  A
O3958      C3959   1.285       .  A
C3959      C4131   1.487       .  S
O3960     Zr3961   2.439       .  S
O3960      H3989   0.990       .  S
Zr3961     O3964   2.437       .  S
Zr3961     O3965   2.438       .  S
Zr3961     O3966   2.420       .  S
O3962      C3967   1.285       .  A
O3963      H3980   0.990   1_655  S
O3963      H3995   0.990       .  S
O3964      H3981   0.990       .  S
O3965      H3985   0.990       .  S
O3965      H3994   0.990       .  S
O3966      C3967   1.283       .  A
C3967      C4158   1.476       .  S
O3968      H3987   0.991       .  S
O3968      H3991   0.990       .  S
O3969      H3983   0.990       .  S
O3969      H3990   0.990       .  S
O3970      C3974   1.287       .  A
O3971      C3974   1.281       .  A
O3972      H3982   0.990       .  S
O3973      H3986   0.990       .  S
C3974      C4101   1.479       .  S
C3997      C3998   1.403       .  A
C3997      C4002   1.396       .  A
C3997      H4004   1.083       .  S
C3998      C3999   1.409       .  A
C3999      C4000   1.394       .  A
C3999      F4006   1.358       .  S
C4000      C4001   1.402       .  A
C4000      H4005   1.084       .  S
C4001      C4002   1.407       .  A
C4002      F4003   1.357       .  S
C4007      C4008   1.405       .  A
C4007      C4012   1.394       .  A
C4007      H4014   1.083       .  S
C4008      C4009   1.410       .  A
C4009      C4010   1.398       .  A
C4009      F4016   1.358       .  S
C4010      C4011   1.402       .  A
C4010      H4015   1.083       .  S
C4011      C4012   1.403       .  A
C4012      F4013   1.357       .  S
C4017      C4018   1.400       .  A
C4017      C4022   1.393       .  A
C4017      H4024   1.084       .  S
C4018      C4019   1.405       .  A
C4019      C4020   1.399       .  A
C4019      F4026   1.357       .  S
C4020      C4021   1.402       .  A
C4020      H4025   1.083       .  S
C4021      C4022   1.405       .  A
C4022      F4023   1.358       .  S
C4027      C4028   1.406       .  A
C4027      C4032   1.403       .  A
C4027      H4034   1.083       .  S
C4028      C4029   1.403       .  A
C4029      C4030   1.393       .  A
C4029      F4036   1.358       .  S
C4030      C4031   1.408       .  A
C4030      H4035   1.083       .  S
C4031      C4032   1.408       .  A
C4032      F4033   1.357       .  S
C4037      C4038   1.402       .  A
C4037      C4042   1.398       .  A
C4037      H4044   1.083       .  S
C4038      C4039   1.404       .  A
C4039      C4040   1.394       .  A
C4039      F4046   1.358       .  S
C4040      C4041   1.407       .  A
C4040      H4045   1.083       .  S
C4041      C4042   1.411       .  A
C4042      F4043   1.357       .  S
C4047      C4048   1.404       .  A
C4047      C4052   1.391       .  A
C4047      H4054   1.083       .  S
C4048      C4049   1.407       .  A
C4049      C4050   1.397       .  A
C4049      F4056   1.357       .  S
C4050      C4051   1.407       .  A
C4050      H4055   1.083       .  S
C4051      C4052   1.411       .  A
C4052      F4053   1.358       .  S
C4057      C4062   1.403       .  A
C4057      H4064   1.083       .  S
C4058      C4059   1.404   1_545  A
C4059      F4066   1.358       .  S
C4060      C4061   1.405   1_565  A
C4060      H4065   1.083       .  S
C4062      F4063   1.357       .  S
C4067      C4068   1.407       .  A
C4067      C4072   1.401       .  A
C4067      H4074   1.083       .  S
C4068      C4069   1.410       .  A
C4069      C4070   1.397       .  A
C4069      F4076   1.358       .  S
C4070      C4071   1.401       .  A
C4070      H4075   1.083   1_565  S
C4071      C4072   1.405       .  A
C4072      F4073   1.357       .  S
C4077      C4078   1.405       .  A
C4077      C4082   1.392       .  A
C4077      H4084   1.083       .  S
C4078      C4079   1.409       .  A
C4079      C4080   1.402       .  A
C4079      F4086   1.358       .  S
C4080      C4081   1.405       .  A
C4080      H4085   1.083       .  S
C4081      C4082   1.404       .  A
C4082      F4083   1.358       .  S
C4087      C4088   1.404       .  A
C4087      C4092   1.397       .  A
C4087      H4094   1.083       .  S
C4088      C4089   1.403       .  A
C4089      C4090   1.390       .  A
C4089      F4096   1.358       .  S
C4090      C4091   1.405       .  A
C4090      H4095   1.084       .  S
C4091      C4092   1.405       .  A
C4092      F4093   1.357       .  S
C4097      C4098   1.400       .  A
C4097      C4102   1.394       .  A
C4097      H4104   1.084       .  S
C4098      C4099   1.406       .  A
C4099      C4100   1.399       .  A
C4099      F4106   1.357       .  S
C4100      C4101   1.405       .  A
C4100      H4105   1.083       .  S
C4101      C4102   1.411       .  A
C4102      F4103   1.358       .  S
C4107      C4108   1.403       .  A
C4107      C4112   1.394       .  A
C4107      H4114   1.083       .  S
C4108      C4109   1.410       .  A
C4109      C4110   1.399       .  A
C4109      F4116   1.358       .  S
C4110      C4111   1.400       .  A
C4111      C4112   1.403       .  A
C4112      F4113   1.358       .  S
C4117      C4118   1.406       .  A
C4117      C4122   1.398       .  A
C4117      H4124   1.083       .  S
C4118      C4119   1.402       .  A
C4119      C4120   1.392       .  A
C4119      F4126   1.358       .  S
C4120      C4121   1.406       .  A
C4120      H4125   1.084       .  S
C4121      C4122   1.404       .  A
C4122      F4123   1.357       .  S
C4127      C4128   1.403       .  A
C4127      C4132   1.401       .  A
C4127      H4134   1.083       .  S
C4128      C4129   1.407   1_655  A
C4129      C4130   1.392   1_455  A
C4130      C4131   1.406       .  A
C4130      H4135   1.083   1_655  S
C4131      C4132   1.412       .  A
C4132      F4133   1.357       .  S
C4137      C4138   1.409       .  A
C4137      C4142   1.398       .  A
C4137      H4144   1.083       .  S
C4138      C4139   1.410       .  A
C4140      H4145   1.083       .  S
C4141      C4142   1.403       .  A
C4142      F4143   1.358       .  S
C4147      C4148   1.400       .  A
C4147      C4152   1.393       .  A
C4147      H4154   1.084       .  S
C4148      C4149   1.404       .  A
C4149      C4150   1.398       .  A
C4149      F4156   1.358       .  S
C4150      C4151   1.407       .  A
C4150      H4155   1.083       .  S
C4151      C4152   1.409       .  A
C4152      F4153   1.357       .  S
C4157      C4158   1.406       .  A
C4157      C4162   1.397       .  A
C4157      H4164   1.083       .  S
C4158      C4159   1.407       .  A
C4159      C4160   1.396       .  A
C4159      F4166   1.357       .  S
C4160      C4161   1.402       .  A
C4160      H4165   1.083       .  S
C4161      C4162   1.406       .  A
C4162      F4163   1.358       .  S
C4167      C4168   1.402       .  A
C4167      C4172   1.395       .  A
C4167      H4174   1.083       .  S
C4168      C4169   1.407       .  A
C4169      C4170   1.400       .  A
C4169      F4176   1.357       .  S
C4170      C4171   1.404       .  A
C4170      H4175   1.083       .  S
C4171      C4172   1.408       .  A
C4172      F4173   1.358       .  S
C4177      C4178   1.402       .  A
C4177      C4182   1.395       .  A
C4178      C4179   1.406       .  A
C4179      C4180   1.400       .  A
C4179      F4186   1.358       .  S
C4180      C4181   1.406       .  A
C4180      H4185   1.083       .  S
C4181      C4182   1.409       .  A
C4182      F4183   1.358       .  S
C4187      C4188   1.399       .  A
C4187      C4192   1.392       .  A
C4188      C4189   1.402   1_565  A
C4189      C4190   1.399   1_545  A
C4189      F4196   1.358       .  S
C4190      C4191   1.410       .  A
C4190      H4195   1.083       .  S
C4191      C4192   1.409       .  A
C4192      F4193   1.357       .  S
C4197      C4202   1.400       .  A
C4197      H4204   1.083       .  S
C4198      C4199   1.406       .  A
C4199      C4200   1.393       .  A
C4199      F4206   1.358       .  S
C4200      H4205   1.084       .  S
C4201      C4202   1.404       .  A
C4202      F4203   1.357       .  S
C4207      C4208   1.406       .  A
C4207      C4212   1.404       .  A
C4207      H4214   1.083       .  S
C4208      C4209   1.411       .  A
C4209      C4210   1.394       .  A
C4210      C4211   1.401       .  A
C4210      H4215   1.084       .  S
C4211      C4212   1.408       .  A
C4212      F4213   1.357       .  S
C4217      C4218   1.403       .  A
C4217      C4222   1.390       .  A
C4217      H4224   1.083       .  S
C4218      C4219   1.407       .  A
C4219      C4220   1.404       .  A
C4219      F4226   1.357       .  S
C4220      C4221   1.410       .  A
C4220      H4225   1.083       .  S
C4221      C4222   1.410       .  A
C4222      F4223   1.357       .  S
C4227      C4228   1.407       .  A
C4227      C4232   1.397       .  A
C4227      H4234   1.083       .  S
C4228      C4229   1.406       .  A
C4229      C4230   1.395       .  A
C4229      F4236   1.357       .  S
C4230      C4231   1.403       .  A
C4230      H4235   1.083       .  S
C4231      C4232   1.405       .  A
C4232      F4233   1.358       .  S
C4237      C4238   1.402       .  A
C4237      C4242   1.400       .  A
C4237      H4244   1.083       .  S
C4238      C4239   1.403       .  A
C4239      C4240   1.396       .  A
C4239      F4246   1.357       .  S
C4240      C4241   1.407       .  A
C4240      H4245   1.083       .  S
C4241      C4242   1.412       .  A
C4242      F4243   1.357       .  S
C4247      C4248   1.402       .  A
C4247      C4252   1.398       .  A
C4247      H4254   1.084       .  S
C4248      C4249   1.403       .  A
C4249      C4250   1.401       .  A
C4249      F4256   1.357       .  S
C4250      C4251   1.410       .  A
C4250      H4255   1.083       .  S
C4251      C4252   1.411       .  A
C4252      F4253   1.357       .  S
C4257      C4258   1.404       .  A
C4257      C4262   1.403       .  A
C4257      H4264   1.083       .  S
C4258      C4259   1.404       .  A
C4259      C4260   1.400       .  A
C4259      F4266   1.357       .  S
C4260      C4261   1.408       .  A
C4260      H4265   1.083       .  S
C4261      C4262   1.412       .  A
C4262      F4263   1.357       .  S
C4267      C4268   1.406       .  A
C4267      C4272   1.396       .  A
C4267      H4274   1.083       .  S
C4268      C4269   1.411       .  A
C4269      C4270   1.399       .  A
C4269      F4276   1.357       .  S
C4270      C4271   1.405       .  A
C4270      H4275   1.083       .  S
C4271      C4272   1.406       .  A
C4272      F4273   1.357       .  S
C4277      C4278   1.405       .  A
C4277      C4282   1.399       .  A
C4277      H4284   1.083       .  S
C4278      C4279   1.404       .  A
C4279      C4280   1.394       .  A
C4279      F4286   1.358       .  S
C4280      C4281   1.407       .  A
C4280      H4285   1.083       .  S
C4281      C4282   1.408       .  A
C4282      F4283   1.357       .  S
C4287      C4288   1.401       .  A
C4287      H4294   1.083       .  S
C4289      C4290   1.393       .  A
C4289      F4296   1.358       .  S
C4290      C4291   1.411       .  A
C4290      H4295   1.082       .  S
C4291      C4292   1.410   1_655  A
C4292      F4293   1.357       .  S
C4297      C4298   1.403       .  A
C4297      C4302   1.392       .  A
C4297      H4304   1.084       .  S
C4298      C4299   1.403       .  A
C4299      C4300   1.396       .  A
C4299      F4306   1.358       .  S
C4300      C4301   1.408       .  A
C4300      H4305   1.083       .  S
C4301      C4302   1.406       .  A
C4302      F4303   1.357       .  S
C4307      C4308   1.400       .  A
C4307      C4312   1.397       .  A
C4307      H4314   1.083       .  S
C4308      C4309   1.404       .  A
C4309      C4310   1.394       .  A
C4309      F4316   1.358       .  S
C4310      C4311   1.407       .  A
C4310      H4315   1.083       .  S
C4311      C4312   1.413       .  A
C4312      F4313   1.356       .  S
C4317      C4318   1.403       .  A
C4317      C4322   1.394       .  A
C4318      C4319   1.409       .  A
C4319      C4320   1.401       .  A
C4319      F4326   1.357       .  S
C4320      C4321   1.405       .  A
C4320      H4325   1.083       .  S
C4321      C4322   1.408       .  A
C4322      F4323   1.358       .  S
C4327      C4328   1.404       .  A
C4327      C4332   1.394       .  A
C4327      H4334   1.083       .  S
C4328      C4329   1.404       .  A
C4329      F4336   1.358       .  S
C4330      C4331   1.404       .  A
C4330      H4335   1.083       .  S
C4332      F4333   1.357   1_655  S
C4337      C4338   1.399       .  A
C4337      C4342   1.394       .  A
C4337      H4344   1.084       .  S
C4338      C4339   1.406       .  A
C4339      C4340   1.401       .  A
C4339      F4346   1.357       .  S
C4340      C4341   1.407       .  A
C4340      H4345   1.083       .  S
C4341      C4342   1.415       .  A
C4342      F4343   1.358       .  S
C4347      C4348   1.407       .  A
C4347      C4352   1.393       .  A
C4347      H4354   1.083       .  S
C4348      C4349   1.415       .  A
C4349      C4350   1.401       .  A
C4349      F4356   1.357       .  S
C4350      C4351   1.400       .  A
C4350      H4355   1.083       .  S
C4351      C4352   1.405       .  A
C4352      F4353   1.358       .  S
C4357      C4362   1.397       .  A
C4359      C4360   1.395       .  A
C4359      F4366   1.357       .  S
C4360      C4361   1.400       .  A
C4360      H4365   1.084       .  S
C4361      C4362   1.403       .  A
C4362      F4363   1.358       .  S
C4367      C4368   1.404       .  A
C4367      C4372   1.399       .  A
C4367      H4374   1.083       .  S
C4368      C4369   1.406       .  A
C4369      C4370   1.399       .  A
C4369      F4376   1.358       .  S
C4370      C4371   1.407       .  A
C4370      H4375   1.083       .  S
C4371      C4372   1.408       .  A
C4372      F4373   1.357       .  S
C4377      C4378   1.407       .  A
C4377      C4382   1.393       .  A
C4377      H4384   1.083       .  S
C4378      C4379   1.410       .  A
C4379      C4380   1.396       .  A
C4379      F4386   1.357       .  S
C4380      C4381   1.403       .  A
C4380      H4385   1.084       .  S
C4381      C4382   1.402       .  A
C4382      F4383   1.357       .  S
C4387      C4388   1.406       .  A
C4387      C4392   1.394       .  A
C4387      H4394   1.083       .  S
C4388      C4389   1.411       .  A
C4389      C4390   1.396       .  A
C4389      F4396   1.357       .  S
C4390      C4391   1.404       .  A
C4390      H4395   1.083       .  S
C4391      C4392   1.407       .  A
C4392      F4393   1.358       .  S
C4397      C4398   1.408       .  A
C4397      C4402   1.392       .  A
C4397      H4404   1.083       .  S
C4398      C4399   1.410       .  A
C4399      C4400   1.396       .  A
C4399      F4406   1.358       .  S
C4400      C4401   1.400       .  A
C4400      H4405   1.084       .  S
C4401      C4402   1.399       .  A
C4402      F4403   1.358       .  S
C4407      C4408   1.399       .  A
C4407      C4412   1.392       .  A
C4407      H4414   1.084       .  S
C4408      C4409   1.404       .  A
C4409      C4410   1.399       .  A
C4409      F4416   1.358       .  S
C4410      C4411   1.406       .  A
C4410      H4415   1.083       .  S
C4411      C4412   1.408       .  A
C4412      F4413   1.358       .  S
C4417      C4418   1.402       .  A
C4417      C4422   1.396       .  A
C4417      H4424   1.083       .  S
C4418      C4419   1.407       .  A
C4419      C4420   1.397       .  A
C4419      F4426   1.358       .  S
C4420      C4421   1.406       .  A
C4420      H4425   1.083       .  S
C4421      C4422   1.411       .  A
C4422      F4423   1.357       .  S
C4427      C4428   1.402       .  A
C4427      C4432   1.400       .  A
C4427      H4434   1.083       .  S
C4428      C4429   1.404       .  A
C4429      C4430   1.398       .  A
C4429      F4436   1.358       .  S
C4430      C4431   1.409       .  A
C4430      H4435   1.083       .  S
C4431      C4432   1.414       .  A
C4432      F4433   1.357       .  S
C4437      C4438   1.401       .  A
C4437      C4442   1.402   1_655  A
C4437      H4444   1.083       .  S
C4438      C4439   1.403       .  A
C4439      C4440   1.387       .  A
C4440      C4441   1.405       .  A
C4441      C4442   1.413   1_655  A
C4442      F4443   1.357       .  S
C4447      C4448   1.408       .  A
C4447      C4452   1.394       .  A
C4447      H4454   1.083       .  S
C4448      C4449   1.407       .  A
C4449      C4450   1.402       .  A
C4449      F4456   1.357       .  S
C4450      C4451   1.407       .  A
C4450      H4455   1.083       .  S
C4451      C4452   1.403       .  A
C4452      F4453   1.358       .  S
C4457      C4458   1.399       .  A
C4457      C4462   1.395       .  A
C4457      H4464   1.083       .  S
C4458      C4459   1.406       .  A
C4459      C4460   1.396       .  A
C4459      F4466   1.358       .  S
C4460      C4461   1.405       .  A
C4460      H4465   1.083       .  S
C4461      C4462   1.412       .  A
C4462      F4463   1.357       .  S
C4467      C4468   1.399       .  A
C4467      C4472   1.388       .  A
C4467      H4474   1.084       .  S
C4469      C4470   1.398       .  A
C4469      F4476   1.357       .  S
C4470      H4475   1.083       .  S
C4471      C4472   1.411       .  A
C4472      F4473   1.358       .  S
C4477      C4478   1.403       .  A
C4477      C4482   1.394       .  A
C4477      H4484   1.084       .  S
C4478      C4479   1.409       .  A
C4479      C4480   1.397       .  A
C4479      F4486   1.358       .  S
C4480      C4481   1.404       .  A
C4480      H4485   1.083       .  S
C4481      C4482   1.409       .  A
C4482      F4483   1.358       .  S
C4487      C4488   1.402       .  A
C4487      C4492   1.395       .  A
C4487      H4494   1.084       .  S
C4488      C4489   1.402       .  A
C4489      C4490   1.399       .  A
C4489      F4496   1.357       .  S
C4490      C4491   1.406       .  A
C4490      H4495   1.083       .  S
C4491      C4492   1.404       .  A
C4492      F4493   1.358       .  S
C4497      C4498   1.406       .  A
C4497      C4502   1.399       .  A
C4497      H4504   1.083       .  S
C4498      C4499   1.411       .  A
C4499      C4500   1.395       .  A
C4499      F4506   1.358       .  S
C4500      C4501   1.400       .  A
C4500      H4505   1.084       .  S
C4501      C4502   1.405       .  A
C4502      F4503   1.358       .  S
C4507      C4508   1.407       .  A
C4507      C4512   1.402       .  A
C4507      H4514   1.083       .  S
C4508      C4509   1.411       .  A
C4509      C4510   1.396       .  A
C4509      F4516   1.358       .  S
C4510      C4511   1.400       .  A
C4510      H4515   1.084       .  S
C4511      C4512   1.405       .  A
C4512      F4513   1.357       .  S
C4517      C4518   1.400       .  A
C4517      C4522   1.393       .  A
C4517      H4524   1.084       .  S
C4518      C4519   1.406       .  A
C4519      C4520   1.399       .  A
C4519      F4526   1.357       .  S
C4520      C4521   1.405       .  A
C4520      H4525   1.083       .  S
C4521      C4522   1.409       .  A
C4522      F4523   1.358       .  S
C4527      C4528   1.405       .  A
C4527      C4532   1.398       .  A
C4527      H4534   1.083       .  S
C4528      C4529   1.407       .  A
C4529      C4530   1.392       .  A
C4529      F4536   1.358       .  S
C4530      C4531   1.402       .  A
C4530      H4535   1.083       .  S
C4531      C4532   1.407       .  A
