geometry optimzed in LAMMPS
_audit_creation_date              2020-12-01 
_audit_creation_method            'lammps2cif' 
_symmetry_space_group_name_H-M    'P1' 
_symmetry_Int_Tables_number       1 
_symmetry_cell_setting            triclinic 
loop_ 
_symmetry_equiv_pos_as_xyz 
  x,y,z 
_cell_length_a                    43.83354254 
_cell_length_b                    43.36691848974084 
_cell_length_c                    60.73787058903037 
_cell_angle_alpha                 89.68772625796146 
_cell_angle_beta                  89.87172183278955 
_cell_angle_gamma                 120.12562655286327 
loop_ 
_atom_site_label 
_atom_site_type_symbol 
_atom_site_fract_x 
_atom_site_fract_y 
_atom_site_fract_z 
_atom_site_charge 
C1          C  0.04626199  0.19328060  0.09923123     0.06600
C2          C  0.05256669  0.16957903  0.08715839    -0.09500
C3          C  0.02490218  0.14120984  0.07600262     0.04100
C4          C  0.99094092  0.13656798  0.07688817    -0.08000
C5          C  0.47675109  0.15317227  0.08441748     0.06600
C6          C  0.01226594  0.18878281  0.09995945    -0.07400
H7          H  0.07885443  0.17308180  0.08655343     0.12200
H8          H  0.46167577  0.10908001  0.06234324     0.09800
H9          H  0.00763975  0.20689138  0.10970144     0.09600
C10         C  0.38732350  0.35030528  0.06589090     0.06600
C11         C  0.36334981  0.35518333  0.07853568    -0.09500
C12         C  0.33489610  0.32586002  0.08884709     0.04100
C13         C  0.33037542  0.29173869  0.08653027    -0.08000
C14         C  0.35462580  0.28668860  0.07430049     0.06600
C15         C  0.38292235  0.31617124  0.06370452    -0.07400
H16         H  0.36688926  0.38163895  0.08041444     0.12200
H17         H  0.30855214  0.26924442  0.09483075     0.09800
H18         H  0.40146032  0.31271600  0.05369249     0.09600
C19         C  0.19157474  0.52155066  0.06994948     0.06600
C20         C  0.18848376  0.49209155  0.08145741    -0.09500
C21         C  0.21583012  0.49596687  0.09509797     0.04100
C22         C  0.25825774  0.01908586  0.09097653    -0.08000
C23         C  0.26400608  0.04947127  0.07906596     0.06600
C24         C  0.23557151  0.04814207  0.06728853    -0.07400
H25         H  0.16473447  0.46628569  0.07995233     0.12200
H26         H  0.27976813  0.01955534  0.10004721     0.09800
H27         H  0.23931885  0.07063578  0.05741138     0.09600
C28         C  0.34135019  0.14753828  0.07654648     0.83700
N29         N  0.37148174  0.14616755  0.07994031    -0.74600
C30         C  0.40324901  0.17706043  0.08090074     0.86200
N31         N  0.40461829  0.20874707  0.07840607    -0.74500
C32         C  0.37501439  0.21035101  0.07501903     0.86300
N33         N  0.34338209  0.17971733  0.07413207    -0.76200
C34         C  0.38271117  0.97820924  0.92346821     0.06600
C35         C  0.35633148  0.45048210  0.92700692    -0.09500
C36         C  0.32463468  0.44254508  0.91672746     0.04100
C37         C  0.32313548  0.46947018  0.90439858    -0.08000
C38         C  0.35254877  0.00054537  0.90072075     0.06600
C39         C  0.38269365  0.00628318  0.91203700    -0.07400
H40         H  0.35784681  0.43011350  0.93658182     0.12200
H41         H  0.29926064  0.46377631  0.89579958     0.09800
H42         H  0.40599756  0.03261592  0.91210709     0.09600
C43         C  0.18389355  0.16306811  0.93326010     0.06600
C44         C  0.20766666  0.15817385  0.92047665    -0.09500
C45         C  0.23539039  0.18710997  0.90947291     0.04100
C46         C  0.23935626  0.22117993  0.91113852    -0.08000
C47         C  0.21537214  0.22654764  0.92361051     0.06600
C48         C  0.18778791  0.19715119  0.93494411    -0.07400
H49         H  0.20462714  0.13183843  0.91911768     0.12200
H50         H  0.26076132  0.24340265  0.90239519     0.09800
H51         H  0.16956951  0.20055181  0.94528769     0.09600
C52         C  0.22815263  0.36707515  0.92436319     0.83700
N53         N  0.19776780  0.36775547  0.92644383    -0.74600
C54         C  0.16652263  0.33735159  0.92891946     0.86200
N55         N  0.16555977  0.30560975  0.92942058    -0.74500
C56         C  0.19577088  0.30424945  0.92749740     0.86300
N57         N  0.22732326  0.33516681  0.92486077    -0.75000
C58         C  0.01311777  0.29686826  0.90992147     0.06600
C59         C  0.04213663  0.29214723  0.91310928    -0.09500
C60         C  0.07029846  0.31571942  0.92636332     0.04100
C61         C  0.06849551  0.34345795  0.93709630    -0.08000
C62         C  0.03955850  0.34829964  0.93393287     0.06600
C63         C  0.01180990  0.32498684  0.92030932    -0.07400
H64         H  0.04325137  0.27068604  0.90475726     0.12200
H65         H  0.08951476  0.36140253  0.94789688     0.09800
H66         H  0.49082750  0.33158924  0.91720227     0.09600
Zn67       Zn  0.03761725  0.50195950  0.03024090     1.49700
Zn68       Zn  0.03754621  0.04457347  0.99246266     1.49400
Zn69       Zn  0.08387456  0.00614513  0.98962921     1.49100
Zn70       Zn  0.49840091  0.46039595  0.98715216     1.49500
O71         O  0.03635924  0.50156081  0.99795933    -1.80600
O72         O  0.04278459  0.04688130  0.04760445    -0.71200
O73         O  0.07990938  0.07857563  0.97422754    -0.71100
O74         O  0.11791842  0.00895762  0.01322053    -0.70600
O75         O  0.03470674  0.07245214  0.01800166    -0.71300
O76         O  0.09271401  0.01015641  0.04482678    -0.70900
O77         O  0.11091733  0.05095436  0.97085566    -0.71400
O78         O  0.00951449  0.42645253  0.97206366    -0.70800
O79         O  0.49012149  0.02355724  0.96622418    -0.71600
O80         O  0.06792891  0.45977630  0.96889220    -0.71000
O81         O  0.46883711  0.47174526  0.96749530    -0.71400
O82         O  0.46683583  0.42975493  0.01167004    -0.71300
O83         O  0.49477818  0.45767980  0.04217589    -0.71100
C84         C  0.03771675  0.07057681  0.03871603     0.80700
C85         C  0.10652302  0.07736888  0.96695885     0.81100
C86         C  0.11810296  0.01085973  0.03413889     0.80100
C87         C  0.03899805  0.43104615  0.96534447     0.80500
C88         C  0.46986819  0.50050422  0.96191395     0.81600
C89         C  0.46888256  0.43192339  0.03251000     0.80700
C90         C  0.35504118  0.34124379  0.73483729     0.06600
C91         C  0.35036372  0.31230781  0.74779532    -0.09500
C92         C  0.37952036  0.31279414  0.75758000     0.04100
C93         C  0.41333874  0.34215124  0.75433853    -0.08000
C94         C  0.41837784  0.37157306  0.74172347     0.06600
C95         C  0.38895782  0.37081904  0.73182282    -0.07400
H96         H  0.32417293  0.28948892  0.75020998     0.12200
H97         H  0.43576559  0.34237254  0.76201695     0.09800
H98         H  0.39230693  0.39273091  0.72147502     0.09600
C99         C  0.20822363  0.01925531  0.76555024     0.06600
C100        C  0.21123084  0.49547183  0.74842118    -0.09500
C101        C  0.18307540  0.47191441  0.73521788     0.04100
C102        C  0.15336417  0.47587258  0.73295400    -0.08000
C103        C  0.15185164  0.50367656  0.74386221     0.06600
C104        C  0.17463225  0.01555882  0.76719795    -0.07400
H105        H  0.23421804  0.49244323  0.75013200     0.12200
H106        H  0.13208059  0.45789995  0.72232734     0.09800
H107        H  0.17087380  0.03341852  0.77777063     0.09600
C108        C  0.06129913  0.17960162  0.74034692     0.06600
C109        C  0.03328720  0.18038829  0.75092651    -0.09500
C110        C  0.00978288  0.15156171  0.76416758     0.04100
C111        C  0.01411506  0.12181941  0.76662554    -0.08000
C112        C  0.04209575  0.12079744  0.75588949     0.06600
C113        C  0.06576570  0.15005028  0.74297321    -0.07400
H114        H  0.02999708  0.20343274  0.74903848     0.12200
H115        H  0.47943053  0.09422920  0.76795353     0.09800
H116        H  0.08756789  0.14967892  0.73474513     0.09600
C117        C  0.99695458  0.46769997  0.73826045     0.83700
N118        N  0.02482819  0.46209566  0.73791372    -0.74600
C119        C  0.05835475  0.49006463  0.73761174     0.86200
N120        N  0.06127460  0.03120039  0.76202116    -0.74500
C121        C  0.02801447  0.02606681  0.76181586     0.86300
N122        N  0.00285850  0.50158217  0.73828013    -0.76200
Zn123      Zn  0.32455510  0.16569214  0.82438273     1.49700
Zn124      Zn  0.36390502  0.15809138  0.86684711     1.49400
Zn125      Zn  0.36104414  0.11775318  0.82226918     1.49100
Zn126      Zn  0.40848796  0.20302144  0.82440737     1.49500
O127        O  0.36456963  0.16114110  0.83452116    -1.80600
O128        O  0.29919379  0.17221082  0.85002031    -0.71200
O129        O  0.35869013  0.11111079  0.87750010    -0.71100
O130        O  0.31695039  0.09069692  0.80417437    -0.70600
O131        O  0.32435181  0.16380102  0.87949958    -0.71300
O132        O  0.28977063  0.12214695  0.80767264    -0.70900
O133        O  0.35820530  0.08414336  0.84631710    -0.71400
O134        O  0.43771001  0.18823382  0.80641483    -0.70800
O135        O  0.40858890  0.19859772  0.87944133    -0.71600
O136        O  0.40350595  0.12936954  0.80342518    -0.71000
O137        O  0.43771582  0.23177965  0.85024123    -0.71400
O138        O  0.39877028  0.23499685  0.80483334    -0.71300
O139        O  0.34020179  0.20799933  0.80404403    -0.71100
C140        C  0.30177962  0.17028679  0.87076942     0.80700
C141        C  0.35714383  0.08483507  0.86722068     0.81100
C142        C  0.29092064  0.09525643  0.80049736     0.80100
C143        C  0.43188604  0.15832156  0.79913231     0.80500
C144        C  0.43460453  0.22616263  0.87093493     0.81600
C145        C  0.37041725  0.23312132  0.79811517     0.80700
C146        C  0.18728145  0.13517747  0.57416872     0.06600
C147        C  0.18593351  0.16295633  0.58488168    -0.09500
C148        C  0.21408958  0.18669761  0.59804223     0.04100
C149        C  0.24384298  0.18285112  0.60035796    -0.08000
C150        C  0.24561590  0.15516202  0.58947973     0.06600
C151        C  0.21691220  0.13119859  0.57659179    -0.07400
H152        H  0.16293208  0.16594233  0.58310861     0.12200
H153        H  0.26504672  0.20097746  0.61097095     0.09800
H154        H  0.21775999  0.10958779  0.56825874     0.09600
C155        C  0.02400738  0.34734786  0.57110836     0.06600
C156        C  0.99006221  0.31797075  0.57389623    -0.09500
C157        C  0.48174849  0.28852629  0.59074465     0.04100
C158        C  0.01351757  0.28941408  0.59730404    -0.08000
C159        C  0.04749264  0.31897493  0.59465909     0.06600
C160        C  0.05272251  0.34784985  0.58148441    -0.07400
H161        H  0.46477187  0.31665955  0.56916428     0.12200
H162        H  0.00978142  0.26766264  0.60794863     0.09800
H163        H  0.07897233  0.37076713  0.57949735     0.09600
C164        C  0.34438059  0.48867331  0.59621765     0.06600
C165        C  0.35081126  0.02259648  0.59927033    -0.09500
C166        C  0.37918243  0.05263939  0.58918879     0.04100
C167        C  0.40406883  0.04834576  0.57701730    -0.08000
C168        C  0.39594705  0.51293448  0.57247632     0.06600
C169        C  0.36815696  0.48381296  0.58334227    -0.07400
H170        H  0.33198416  0.02538449  0.60939530     0.12200
H171        H  0.42618457  0.07132248  0.56929263     0.09800
H172        H  0.36521516  0.45753331  0.58193568     0.09600
C173        C  0.40142661  0.19401199  0.59770795     0.83700
N174        N  0.39632633  0.16049029  0.59711471    -0.74600
C175        C  0.36321904  0.13180368  0.59631866     0.86200
N176        N  0.33504683  0.13683825  0.59616791    -0.74500
C177        C  0.33980122  0.17032334  0.59677057     0.86300
N178        N  0.37305515  0.19883500  0.59752456    -0.76200
Zn179      Zn  0.24474403  0.33531129  0.65512301     1.49700
Zn180      Zn  0.20092119  0.33202650  0.69827675     1.49400
Zn181      Zn  0.19673780  0.37168952  0.65452052     1.49100
Zn182      Zn  0.16051555  0.28676416  0.65528635     1.49500
O183        O  0.20070437  0.33140839  0.66585826    -1.80600
O184        O  0.27563480  0.33777597  0.68033965    -0.71200
O185        O  0.19652756  0.37334736  0.70973290    -0.71100
O186        O  0.23969383  0.40550882  0.63672541    -0.70600
O187        O  0.24565487  0.33542327  0.71053956    -0.71300
O188        O  0.27268933  0.37977319  0.63670516    -0.70900
O189        O  0.19195383  0.39955345  0.67929569    -0.71400
O190        O  0.12854292  0.29602850  0.63590175    -0.70800
O191        O  0.15917001  0.28734188  0.71045269    -0.71600
O192        O  0.15384768  0.35515935  0.63539238    -0.71000
O193        O  0.13090074  0.25641929  0.68073160    -0.71400
O194        O  0.17691655  0.25808097  0.63792401    -0.71300
O195        O  0.23537523  0.29256216  0.63702915    -0.71100
C196        C  0.27264260  0.33744583  0.70117679     0.80700
C197        C  0.19256192  0.39725412  0.70014200     0.81100
C198        C  0.26741497  0.40501896  0.63111029     0.80100
C199        C  0.12929471  0.32447267  0.62973050     0.80500
C200        C  0.13372359  0.26017279  0.70151019     0.81600
C201        C  0.20727425  0.26402107  0.63200359     0.80700
C202        C  0.38324370  0.36455104  0.42427629     0.06600
C203        C  0.38349645  0.33612789  0.41366547    -0.09500
C204        C  0.35488867  0.31283026  0.40063677     0.04100
C205        C  0.32576174  0.31779069  0.39839638    -0.08000
C206        C  0.32523321  0.34625933  0.40913822     0.06600
C207        C  0.35438862  0.36975798  0.42182671    -0.07400
H208        H  0.40595961  0.33224626  0.41545779     0.12200
H209        H  0.30405115  0.29993461  0.38799295     0.09800
H210        H  0.35440149  0.39186452  0.43009906     0.09600
C211        C  0.05045995  0.15673059  0.42842872     0.06600
C212        C  0.08421943  0.18675913  0.42641835    -0.09500
C213        C  0.08988977  0.21613333  0.41345457     0.04100
C214        C  0.06120278  0.21471615  0.40210828    -0.08000
C215        C  0.02743484  0.18453787  0.40393737     0.06600
C216        C  0.02208930  0.15567231  0.41719252    -0.07400
H217        H  0.10612721  0.18731276  0.43504092     0.12200
H218        H  0.06509538  0.23645863  0.39140130     0.09800
H219        H  0.49251272  0.12981959  0.41579518     0.09600
C220        C  0.22475387  0.01036061  0.40372234     0.06600
C221        C  0.20073548  0.01525433  0.41632521    -0.09500
C222        C  0.17302900  0.98625097  0.42733847     0.04100
C223        C  0.17259552  0.45995433  0.42150636    -0.08000
C224        C  0.19663638  0.45456286  0.40918563     0.06600
C225        C  0.22511588  0.48399784  0.39862954    -0.07400
H226        H  0.20344089  0.04146735  0.41742029     0.12200
H227        H  0.15046054  0.43750318  0.42961635     0.09800
H228        H  0.24339778  0.48038057  0.38847150     0.09600
C229        C  0.17029484  0.31086101  0.40571741     0.83700
N230        N  0.19822722  0.30537013  0.40530769    -0.74600
C231        C  0.23172185  0.33338625  0.40431629     0.86200
N232        N  0.23724319  0.36717759  0.40372614    -0.74500
C233        C  0.20955146  0.37299838  0.40409680     0.86300
N234        N  0.17610395  0.34470671  0.40507066    -0.76200
Zn235      Zn  0.07772665  0.04070496  0.48956635     1.49700
Zn236      Zn  0.03499915  0.45869342  0.48732385     1.49400
Zn237      Zn  0.03713461  0.50110252  0.53117836     1.49100
Zn238      Zn  0.49645659  0.00398576  0.48940721     1.49500
O239        O  0.03637495  0.50165440  0.49882870    -1.80600
O240        O  0.10559261  0.02557120  0.47052677    -0.71200
O241        O  0.03408089  0.42718999  0.51223896    -0.71100
O242        O  0.07841852  0.03972304  0.54472585    -0.70600
O243        O  0.07771828  0.47139547  0.46823958    -0.71300
O244        O  0.10910911  0.06874276  0.51484654    -0.70900
O245        O  0.03494902  0.45629360  0.54255152    -0.71400
O246        O  0.46873051  0.00651167  0.51523801    -0.70800
O247        O  0.48823591  0.42802856  0.46937661    -0.71600
O248        O  0.49823082  0.00485051  0.54455258    -0.71000
O249        O  0.46298122  0.46157647  0.46943511    -0.71400
O250        O  0.00917272  0.04783728  0.47169617    -0.71300
O251        O  0.06773927  0.07397600  0.47163759    -0.71100
C252        C  0.10427324  0.50091837  0.46232721     0.80700
C253        C  0.03393032  0.42970042  0.53309679     0.81100
C254        C  0.10580734  0.06504658  0.53565502     0.80100
C255        C  0.47261637  0.00649382  0.53598178     0.80500
C256        C  0.46382273  0.43396732  0.46342964     0.81600
C257        C  0.03944736  0.07327464  0.46604839     0.80700
C258        C  0.35712249  0.47801309  0.23860389     0.06600
C259        C  0.38552110  0.47201343  0.24054364    -0.09500
C260        C  0.41516118  0.49490788  0.25302730     0.04100
C261        C  0.40464915  0.01729329  0.26493106    -0.08000
C262        C  0.37414250  0.02005866  0.26421853     0.06600
C263        C  0.35787626  0.50678247  0.24947023    -0.07400
H264        H  0.38471704  0.44965945  0.23208079     0.12200
H265        H  0.42720920  0.03671119  0.27416407     0.09800
H266        H  0.33574596  0.51127621  0.24808491     0.09600
C267        C  0.19091675  0.18587797  0.23846143     0.06600
C268        C  0.15746321  0.15535283  0.23920271    -0.09500
C269        C  0.15170850  0.12496946  0.25099277     0.04100
C270        C  0.17997137  0.12572696  0.26244531    -0.08000
C271        C  0.21348141  0.15645220  0.26189245     0.06600
C272        C  0.21895966  0.18646686  0.24981624    -0.07400
H273        H  0.13583573  0.15519059  0.23045204     0.12200
H274        H  0.17591587  0.10300953  0.27222756     0.09800
H275        H  0.24484415  0.21023648  0.24938943     0.09600
C276        C  0.01844098  0.33618285  0.26496004     0.06600
C277        C  0.04274256  0.33171448  0.25247165    -0.09500
C278        C  0.07030408  0.36086615  0.24156426     0.04100
C279        C  0.07368814  0.39463344  0.24307893    -0.08000
C280        C  0.04916534  0.39948107  0.25523184     0.06600
C281        C  0.02160350  0.36996255  0.26642192    -0.07400
H282        H  0.04021608  0.30558016  0.25124574     0.12200
H283        H  0.09503119  0.41702375  0.23440254     0.09800
H284        H  0.49378776  0.35815174  0.27074461     0.09600
C285        C  0.07131624  0.02987430  0.25469195     0.83700
N286        N  0.06090600  0.50698778  0.25461384    -0.74600
C287        C  0.02899787  0.47651364  0.25684221     0.86200
N288        N  0.99904562  0.47847223  0.25736133    -0.74500
C289        C  0.00065000  0.51047324  0.25577971     0.86300
N290        N  0.04379459  0.03595785  0.25439756    -0.76200
Zn291      Zn  0.24568714  0.38137222  0.15541638     1.49700
Zn292      Zn  0.20352111  0.34037130  0.19891839     1.49400
Zn293      Zn  0.16145166  0.34363522  0.15641455     1.49100
Zn294      Zn  0.19820179  0.29600731  0.15573764     1.49500
O295        O  0.20216843  0.34031205  0.16662316    -1.80600
O296        O  0.27784380  0.41060357  0.18003952    -0.71200
O297        O  0.16337376  0.34450014  0.21163126    -0.71100
O298        O  0.17667704  0.38715636  0.13721024    -0.70600
O299        O  0.24827469  0.38206381  0.21031723    -0.71300
O300        O  0.23527895  0.41390832  0.13739474    -0.70900
O301        O  0.13498070  0.34790919  0.18217661    -0.71400
O302        O  0.15298561  0.26687558  0.13891852    -0.70800
O303        O  0.20086121  0.29559363  0.21088318    -0.71600
O304        O  0.12741914  0.30009804  0.13917228    -0.71000
O305        O  0.19858584  0.26545697  0.18078344    -0.71400
O306        O  0.23869228  0.30644863  0.13544177    -0.71300
O307        O  0.27224412  0.36562404  0.13582592    -0.71100
C308        C  0.27507223  0.40751442  0.20088186     0.80700
C309        C  0.13878824  0.34774701  0.20291310     0.81100
C310        C  0.20687125  0.41261399  0.13150440     0.80100
C311        C  0.12776711  0.27199363  0.13372253     0.80500
C312        C  0.19941290  0.26867124  0.20160934     0.81600
C313        C  0.26594865  0.33518746  0.12931642     0.80700
Zn314      Zn  0.40671549  0.21204406  0.34286508     1.49700
Zn315      Zn  0.36536168  0.16579787  0.30036154     1.49400
Zn316      Zn  0.37131925  0.12727725  0.34422583     1.49100
Zn317      Zn  0.32248738  0.16300761  0.34389691     1.49500
O318        O  0.36648564  0.16704198  0.33279774    -1.80600
O319        O  0.43421473  0.24250712  0.31695510    -0.71200
O320        O  0.36790926  0.12339312  0.28893948    -0.71100
O321        O  0.41600254  0.14470167  0.36202062    -0.70600
O322        O  0.40641316  0.21050380  0.28745149    -0.71300
O323        O  0.44061413  0.20376625  0.36117952    -0.70900
O324        O  0.37316414  0.09766739  0.31939864    -0.71400
O325        O  0.29508896  0.11850361  0.36239357    -0.70800
O326        O  0.32059548  0.16243594  0.28869250    -0.71600
O327        O  0.32936794  0.09419497  0.36310431    -0.71000
O328        O  0.29097069  0.16041551  0.31897797    -0.71400
O329        O  0.33205316  0.20581190  0.36204535    -0.71300
O330        O  0.39048584  0.24038903  0.36078557    -0.71100
C331        C  0.43117596  0.23845573  0.29620680     0.80700
C332        C  0.37114430  0.09906487  0.29857396     0.81100
C333        C  0.44077526  0.17566038  0.36712722     0.80100
C334        C  0.30119480  0.09399784  0.36846537     0.80500
C335        C  0.29376926  0.16055491  0.29813350     0.81600
C336        C  0.36020159  0.23441445  0.36692376     0.80700
C337        C  0.05321479  0.43563893  0.25569120    -0.12900
C338        C  0.02576158  0.44096874  0.25826755    -0.28100
H339        H  0.07918066  0.45835567  0.25222536     0.16100
H340        H  0.99936036  0.41832587  0.26042237     0.16700
C341        C  0.47940569  0.29063470  0.27166841    -0.09800
C342        C  0.45674815  0.26642833  0.28235123    -0.11300
C343        C  0.11479345  0.35183771  0.21690624    -0.09800
C344        C  0.09468675  0.35592665  0.22835377    -0.11300
C345        C  0.11545708  0.09378123  0.25167222    -0.12900
C346        C  0.10801970  0.05995496  0.25479534    -0.28100
H347        H  0.09400345  0.09889295  0.24844490     0.16100
H348        H  0.12910768  0.05394878  0.25671686     0.16700
C349        C  0.19830386  0.24081089  0.21504767    -0.09800
C350        C  0.19603484  0.21644738  0.22597930    -0.11300
C351        C  0.24205244  0.15750926  0.27420650    -0.09800
C352        C  0.26578617  0.15871288  0.28490331    -0.11300
C353        C  0.47837973  0.51297798  0.25739381    -0.12900
C354        C  0.44464498  0.48743738  0.25438668    -0.28100
H355        H  0.48513780  0.54060355  0.25903818     0.16100
H356        H  0.43377377  0.95892411  0.25199894     0.16700
C357        C  0.30318797  0.43336761  0.21419755    -0.09800
C358        C  0.32729665  0.45432178  0.22541970    -0.11300
C359        C  0.37234617  0.07208112  0.28565019    -0.09800
C360        C  0.37316459  0.04862343  0.27556818    -0.11300
C361        C  0.21631440  0.41004432  0.40403881    -0.12900
C362        C  0.19046997  0.41767797  0.40745236    -0.28100
H363        H  0.24346672  0.43139470  0.40225683     0.16100
H364        H  0.16378724  0.39593502  0.41049751     0.16700
C365        C  0.27513329  0.06484993  0.38145415    -0.09800
C366        C  0.25251553  0.04003768  0.39180418    -0.11300
C367        C  0.15230790  0.49876947  0.43694956    -0.09800
C368        C  0.13065459  0.50051401  0.44839236    -0.11300
C369        C  0.12634340  0.24701726  0.41143451    -0.12900
C370        C  0.13369908  0.28055516  0.40708981    -0.28100
H371        H  0.14793919  0.24211566  0.41462934     0.16100
H372        H  0.11246555  0.28637478  0.40529567     0.16700
C373        C  0.47014473  0.17893907  0.37962858    -0.09800
C374        C  0.49496511  0.18087599  0.38950502    -0.11300
C375        C  0.04192072  0.10213659  0.45290106    -0.09800
C376        C  0.04520676  0.12680603  0.44177862    -0.11300
C377        C  0.26158572  0.32659637  0.40441023    -0.12900
C378        C  0.29514827  0.35278535  0.40725620    -0.28100
H379        H  0.25543815  0.29908978  0.40328510     0.16100
H380        H  0.30058792  0.37986624  0.40982645     0.16700
C381        C  0.35589196  0.28427175  0.38923890    -0.09800
C382        C  0.35765764  0.26111890  0.37938163    -0.11300
C383        C  0.41245443  0.38836713  0.43786085    -0.09800
C384        C  0.43625582  0.40880582  0.44948217    -0.11300
C385        C  0.38423522  0.08896805  0.59151629    -0.12900
C386        C  0.35751896  0.09529592  0.59499332    -0.28100
H387        H  0.41079036  0.11136561  0.58918408     0.16100
H388        H  0.33052855  0.07335194  0.59592173     0.16700
C389        C  0.31656980  0.45890059  0.60800888    -0.09800
C390        C  0.29382450  0.43412439  0.61829463    -0.11300
C391        C  0.42063131  0.50820665  0.55931363    -0.09800
C392        C  0.44727023  0.00846836  0.55009848    -0.11300
C393        C  0.44524083  0.25816357  0.59360699    -0.12900
C394        C  0.43785950  0.22456488  0.59752098    -0.28100
H395        H  0.42368231  0.26319766  0.59060096     0.16100
H396        H  0.45910394  0.21870915  0.59907393     0.16700
C397        C  0.07684033  0.32024486  0.60611130    -0.09800
C398        C  0.10110155  0.32189244  0.61641401    -0.11300
C399        C  0.02909924  0.37704795  0.55769428    -0.09800
C400        C  0.03199795  0.40135380  0.54642152    -0.11300
C401        C  0.27641539  0.14975985  0.59160380    -0.12900
C402        C  0.30937295  0.17621823  0.59596828    -0.28100
H403        H  0.27203668  0.12324700  0.58825712     0.16100
H404        H  0.31471392  0.20332979  0.59797812     0.16700
C405        C  0.21207432  0.21459601  0.60955191    -0.09800
C406        C  0.20995396  0.23743396  0.61953047    -0.11300
C407        C  0.15821340  0.11067236  0.56068322    -0.09800
C408        C  0.13408604  0.09001493  0.54931544    -0.11300
C409        C  0.02179729  0.05649529  0.76153985    -0.12900
C410        C  0.04801534  0.09013835  0.75808738    -0.28100
H411        H  0.99471484  0.05066309  0.76292210     0.16100
H412        H  0.07463288  0.09517320  0.75525821     0.16700
C413        C  0.10742907  0.23273683  0.71531571    -0.09800
C414        C  0.08585110  0.20905640  0.72682503    -0.11300
C415        C  0.47996377  0.15506168  0.77460161    -0.09800
C416        C  0.45823170  0.15712104  0.78570531    -0.11300
C417        C  0.08824013  0.48336132  0.73799354    -0.12900
C418        C  0.12147405  0.50961256  0.74172587    -0.28100
H419        H  0.08238083  0.45600980  0.73635795     0.16100
H420        H  0.12642047  0.53642000  0.74474610     0.16700
C421        C  0.26179902  0.06907462  0.78797348    -0.09800
C422        C  0.23729400  0.04664590  0.77766700    -0.11300
C423        C  0.18540142  0.44445664  0.72343636    -0.09800
C424        C  0.18851892  0.42248470  0.71315907    -0.11300
C425        C  0.45479150  0.40227395  0.73919820    -0.12900
C426        C  0.46209022  0.43605758  0.73613979    -0.28100
H427        H  0.47642384  0.39714317  0.74156480     0.16100
H428        H  0.44081902  0.44195537  0.73513975     0.16700
C429        C  0.37499900  0.28361497  0.77137808    -0.09800
C430        C  0.37257979  0.26025941  0.78343367    -0.11300
C431        C  0.32516049  0.34025792  0.72416656    -0.09800
C432        C  0.30069812  0.33917108  0.71434916    -0.11300
C433        C  0.46125809  0.25181031  0.88517966    -0.09800
C434        C  0.48409202  0.27312618  0.89701761    -0.11300
C435        C  0.03897362  0.37771641  0.94445964    -0.09800
C436        C  0.03939387  0.40251440  0.95367493    -0.11300
C437        C  0.10177854  0.31156267  0.92798119    -0.12900
C438        C  0.13431672  0.33981499  0.93015548    -0.28100
H439        H  0.09851408  0.28533068  0.92524067     0.16100
H440        H  0.13795584  0.36643931  0.93116198     0.16700
C441        C  0.19283296  0.26870941  0.92796556    -0.12900
C442        C  0.21991587  0.26304573  0.92435364    -0.28100
H443        H  0.16651600  0.24612546  0.93049338     0.16100
H444        H  0.24577428  0.28565114  0.92051435     0.16700
C445        C  0.27875495  0.17613772  0.88474137    -0.09800
C446        C  0.25934124  0.18149453  0.89612847    -0.11300
C447        C  0.15570557  0.13291499  0.94473716    -0.09800
C448        C  0.13288461  0.10727098  0.95447695    -0.11300
C449        C  0.29331211  0.40630553  0.91956480    -0.12900
C450        C  0.26072321  0.40162942  0.92090656    -0.28100
H451        H  0.29725876  0.38371570  0.92200949     0.16100
H452        H  0.25738938  0.42478760  0.91997425     0.16700
C453        C  0.35279187  0.02984307  0.88915383    -0.09800
C454        C  0.35432633  0.05499299  0.87945961    -0.11300
C455        C  0.41730823  0.49314179  0.93734738    -0.09800
C456        C  0.44241053  0.49813568  0.94807962    -0.11300
C457        C  0.30004618  0.08176311  0.07919673    -0.12900
C458        C  0.30602799  0.11500161  0.07553736    -0.28100
H459        H  0.32212766  0.07820511  0.08354453     0.16100
H460        H  0.28398497  0.11913482  0.07239455     0.16700
C461        C  0.20915534  0.44109355  0.11820480    -0.09800
C462        C  0.21204440  0.46586559  0.10746729    -0.11300
C463        C  0.16317067  0.51745199  0.05611950    -0.09800
C464        C  0.14794337  0.01386617  0.04602539    -0.11300
C465        C  0.35031201  0.25057368  0.07355732    -0.12900
C466        C  0.37817074  0.24565600  0.07292672    -0.28100
H467        H  0.32398013  0.22772480  0.07571177     0.16100
H468        H  0.40469868  0.26853840  0.07243639     0.16700
C469        C  0.31086083  0.33063854  0.10253901    -0.09800
C470        C  0.29043356  0.33317219  0.11461348    -0.11300
C471        C  0.44088810  0.40435408  0.04536215    -0.09800
C472        C  0.41656706  0.38021953  0.05511638    -0.11300
C473        C  0.43697781  0.17799702  0.08454488    -0.12900
C474        C  0.44111990  0.14943781  0.08371028    -0.28100
H475        H  0.46004812  0.20426384  0.08645516     0.16100
H476        H  0.41850576  0.12346574  0.08014859     0.16700
C477        C  0.07464923  0.22181792  0.11121339    -0.09800
C478        C  0.09875404  0.24507226  0.12139964    -0.11300
C479        C  0.03112861  0.11679192  0.06346297    -0.09800
C480        C  0.03484292  0.09583009  0.05245783    -0.11300
C481        C  0.04354999  0.68574932  0.09820872     0.06600
C482        C  0.04770855  0.66277057  0.08406556    -0.09500
C483        C  0.01830948  0.63500446  0.07380728     0.04100
C484        C  0.98467970  0.63007085  0.07770655    -0.08000
C485        C  0.48542375  0.65921994  0.09005811     0.06600
C486        C  0.00988894  0.68109288  0.10198930    -0.07400
H487        H  0.07373827  0.66643104  0.08109317     0.12200
H488        H  0.46814484  0.61432215  0.06830121     0.09800
H489        H  0.00698922  0.69877118  0.11322345     0.09600
C490        C  0.40291942  0.85298855  0.07682263     0.06600
C491        C  0.37454311  0.85338403  0.08715829    -0.09500
C492        C  0.35120870  0.82456734  0.10045107     0.04100
C493        C  0.35613609  0.79525860  0.10326543    -0.08000
C494        C  0.38444015  0.79457352  0.09273660     0.06600
C495        C  0.40801187  0.82387092  0.07980896    -0.07400
H496        H  0.37059894  0.87595303  0.08483534     0.12200
H497        H  0.33814958  0.77334689  0.11380270     0.09800
H498        H  0.42991633  0.82364876  0.07161926     0.09600
C499        C  0.20205226  0.01729074  0.06785640     0.06600
C500        C  0.19679047  0.98750921  0.08008470    -0.09500
C501        C  0.22479862  0.98830795  0.09162457     0.04100
C502        C  0.24651722  0.52928692  0.09710873    -0.08000
C503        C  0.24996609  0.55908258  0.08550631     0.06600
C504        C  0.22208185  0.55497520  0.07210576    -0.07400
H505        H  0.17091551  0.96372525  0.08062080     0.12200
H506        H  0.26709749  0.53198527  0.10812746     0.09800
H507        H  0.22419564  0.57775792  0.06325651     0.09600
C508        C  0.34476312  0.63695471  0.09436297     0.83700
N509        N  0.37776506  0.64152351  0.09491856    -0.74600
C510        C  0.40646640  0.67481160  0.09633399     0.86200
N511        N  0.40189932  0.70351896  0.09725374    -0.74500
C512        C  0.36895362  0.69916137  0.09677134     0.86300
N513        N  0.34054992  0.66588572  0.09532129    -0.76200
C514        C  0.38569609  0.48493510  0.92567261     0.06600
C515        C  0.35258834  0.94423031  0.92362446    -0.09500
C516        C  0.32190250  0.93820764  0.91276472     0.04100
C517        C  0.32226385  0.96657063  0.90097560    -0.08000
C518        C  0.35263719  0.50387772  0.90296619     0.06600
C519        C  0.38385406  0.51156091  0.91368260    -0.07400
H520        H  0.35263774  0.92277388  0.93285451     0.12200
H521        H  0.29917020  0.96239390  0.89201405     0.09800
H522        H  0.40661805  0.53822578  0.91276499     0.09600
C523        C  0.17840762  0.66078372  0.92838431     0.06600
C524        C  0.20218121  0.65605229  0.91551433    -0.09500
C525        C  0.22934635  0.68493165  0.90416666     0.04100
C526        C  0.23274316  0.71877252  0.90555337    -0.08000
C527        C  0.20880117  0.72400888  0.91816834     0.06600
C528        C  0.18168338  0.69464689  0.92979937    -0.07400
H529        H  0.19967916  0.62991185  0.91444068     0.12200
H530        H  0.25387015  0.74098673  0.89663333     0.09800
H531        H  0.16350122  0.69792575  0.94024867     0.09600
C532        C  0.22431071  0.86527797  0.91968775     0.83700
N533        N  0.19461371  0.86703552  0.92264116    -0.74600
C534        C  0.16310260  0.83719068  0.92591535     0.86200
N535        N  0.16118505  0.80497308  0.92625693    -0.74500
C536        C  0.19068859  0.80257970  0.92338683     0.86300
N537        N  0.22246936  0.83291038  0.92004526    -0.75000
C538        C  0.00925809  0.79814011  0.91138382     0.06600
C539        C  0.03827412  0.79328136  0.91397590    -0.09500
C540        C  0.06738336  0.81727213  0.92639505     0.04100
C541        C  0.06663937  0.84567237  0.93697390    -0.08000
C542        C  0.03761229  0.85061109  0.93456132     0.06600
C543        C  0.00885270  0.82684780  0.92168105    -0.07400
H544        H  0.03867559  0.77137375  0.90570897     0.12200
H545        H  0.08851660  0.86396870  0.94712859     0.09800
H546        H  0.48682722  0.82534951  0.91729719     0.09600
Zn547      Zn  0.04604633  0.00530986  0.03533738     1.49700
Zn548      Zn  0.03257243  0.54225379  0.98720025     1.49400
Zn549      Zn  0.07947762  0.50449349  0.98606821     1.49100
Zn550      Zn  0.49493486  0.95532913  0.98849477     1.49500
O551        O  0.04186834  0.00397616  0.00300310    -1.80600
O552        O  0.03374947  0.54293225  0.04209090    -0.71200
O553        O  0.07578771  0.57648600  0.96989626    -0.71100
O554        O  0.11212380  0.50878384  0.01083654    -0.70600
O555        O  0.02771627  0.56961712  0.01236492    -0.71300
O556        O  0.08303312  0.50690710  0.04139144    -0.70900
O557        O  0.10683065  0.54883924  0.96693569    -0.71400
O558        O  0.01195185  0.92934260  0.97592162    -0.70800
O559        O  0.49389255  0.53084219  0.96853874    -0.71600
O560        O  0.07018670  0.96185177  0.97129984    -0.71000
O561        O  0.46346665  0.96440679  0.96893774    -0.71400
O562        O  0.46644145  0.92697698  0.01482778    -0.71300
O563        O  0.49891638  0.95836629  0.04321167    -0.71100
C564        C  0.02933912  0.56693487  0.03313277     0.80700
C565        C  0.10249390  0.57525276  0.96287914     0.81100
C566        C  0.10997751  0.50949864  0.03170578     0.80100
C567        C  0.04067629  0.93364938  0.96794650     0.80500
C568        C  0.46509882  0.99259608  0.96142436     0.81600
C569        C  0.47185271  0.93143180  0.03541525     0.80700
C570        C  0.35664926  0.84389745  0.73624677     0.06600
C571        C  0.35169814  0.81442927  0.74871018    -0.09500
C572        C  0.38052214  0.81488325  0.75891779     0.04100
C573        C  0.41422971  0.84469617  0.75665835    -0.08000
C574        C  0.41949774  0.87457081  0.74450441     0.06600
C575        C  0.39045175  0.87395771  0.73417347    -0.07400
H576        H  0.32559297  0.79116976  0.75032905     0.12200
H577        H  0.43641220  0.84478615  0.76460663     0.09800
H578        H  0.39405555  0.89626223  0.72412740     0.09600
C579        C  0.20995695  0.52320826  0.75918937     0.06600
C580        C  0.21345247  0.99584689  0.75243436    -0.09500
C581        C  0.18509510  0.96854310  0.74110539     0.04100
C582        C  0.15149315  0.96464797  0.74287784    -0.08000
C583        C  0.14599037  0.98825885  0.75572356     0.06600
C584        C  0.18053044  0.52743329  0.75677627    -0.07400
H585        H  0.23944393  0.99872230  0.75116867     0.12200
H586        H  0.12962419  0.94334771  0.73408533     0.09800
H587        H  0.17983863  0.54912029  0.76512678     0.09600
C588        C  0.05837681  0.67544267  0.73663360     0.06600
C589        C  0.03498270  0.68074467  0.74963552    -0.09500
C590        C  0.00628740  0.65165651  0.75993534     0.04100
C591        C  0.00101318  0.61727905  0.75725821    -0.08000
C592        C  0.02454187  0.61163694  0.74456444     0.06600
C593        C  0.05320064  0.64100803  0.73409407    -0.07400
H594        H  0.03890258  0.70734133  0.75155890     0.12200
H595        H  0.47711358  0.59066404  0.76593135     0.09800
H596        H  0.07104198  0.63722831  0.72359822     0.09600
C597        C  0.00500290  0.96394438  0.76070751     0.83700
N598        N  0.03827725  0.96931799  0.76093062    -0.74600
C599        C  0.06653547  0.00291640  0.76157683     0.86200
N600        N  0.06395485  0.52386067  0.73763045    -0.74500
C601        C  0.03636462  0.52978264  0.73795644     0.86300
N602        N  0.00001124  0.99242651  0.76117702    -0.76200
Zn603      Zn  0.32313139  0.66408569  0.82160431     1.49700
Zn604      Zn  0.36049283  0.65742932  0.86518117     1.49400
Zn605      Zn  0.35917279  0.61571360  0.82144747     1.49100
Zn606      Zn  0.40720306  0.70092411  0.82307539     1.49500
O607        O  0.36259008  0.65955733  0.83285894    -1.80600
O608        O  0.29557275  0.66950444  0.84627195    -0.71200
O609        O  0.35480514  0.61083511  0.87667054    -0.71100
O610        O  0.31591099  0.58852646  0.80265012    -0.70600
O611        O  0.32055555  0.66355667  0.87664141    -0.71300
O612        O  0.29000278  0.62142071  0.80373146    -0.70900
O613        O  0.35573035  0.58295661  0.84621475    -0.71400
O614        O  0.43584507  0.68558215  0.80490709    -0.70800
O615        O  0.40505214  0.69741190  0.87814624    -0.71600
O616        O  0.40193437  0.62655725  0.80312816    -0.71000
O617        O  0.43677125  0.72858763  0.84905525    -0.71400
O618        O  0.39855058  0.73421622  0.80414406    -0.71300
O619        O  0.34004006  0.70731765  0.80220003    -0.71100
C620        C  0.29766174  0.66871599  0.86711190     0.80700
C621        C  0.35396356  0.58440280  0.86705399     0.81100
C622        C  0.29094564  0.59401302  0.79741972     0.80100
C623        C  0.43012060  0.65536375  0.79829199     0.80500
C624        C  0.43249299  0.72362806  0.86976305     0.81600
C625        C  0.37053330  0.73278831  0.79715248     0.80700
C626        C  0.18902347  0.64037772  0.57160770     0.06600
C627        C  0.18778009  0.66788092  0.58272553    -0.09500
C628        C  0.21594475  0.69111110  0.59605102     0.04100
C629        C  0.24563532  0.68705909  0.59809305    -0.08000
C630        C  0.24715857  0.65951337  0.58685022     0.06600
C631        C  0.21847215  0.63609565  0.57379875    -0.07400
H632        H  0.16480846  0.67097350  0.58119389     0.12200
H633        H  0.26690074  0.70475779  0.60882180     0.09800
H634        H  0.21914138  0.61458184  0.56521044     0.09600
C635        C  0.01959465  0.84640868  0.57563412     0.06600
C636        C  0.98590093  0.81690514  0.57888860    -0.09500
C637        C  0.48366912  0.78878358  0.58736596     0.04100
C638        C  0.01013930  0.79029206  0.60333396    -0.08000
C639        C  0.04394927  0.82013881  0.60034447     0.06600
C640        C  0.04860052  0.84807363  0.58640469    -0.07400
H641        H  0.46839414  0.81907679  0.56641925     0.12200
H642        H  0.00671452  0.76900364  0.61431017     0.09800
H643        H  0.07468789  0.87105407  0.58398094     0.09600
C644        C  0.34710200  0.98877839  0.59687595     0.06600
C645        C  0.34821796  0.52265789  0.59808631    -0.09500
C646        C  0.37600801  0.55206369  0.58709527     0.04100
C647        C  0.39993915  0.54690786  0.57447627    -0.08000
C648        C  0.40035434  0.01453602  0.57447849     0.06600
C649        C  0.37181190  0.98471654  0.58441096    -0.07400
H650        H  0.33008892  0.52611672  0.60850115     0.12200
H651        H  0.42162546  0.56936677  0.56606852     0.09800
H652        H  0.36896556  0.95854272  0.58256772     0.09600
C653        C  0.40193653  0.69491799  0.59378010     0.83700
N654        N  0.39593516  0.66104132  0.59374436    -0.74600
C655        C  0.36246978  0.63286933  0.59361434     0.86200
N656        N  0.33487106  0.63880871  0.59356980    -0.74500
C657        C  0.34054390  0.67266640  0.59360698     0.86300
N658        N  0.37412886  0.70063546  0.59371813    -0.76200
Zn659      Zn  0.24609747  0.83663630  0.65592979     1.49700
Zn660      Zn  0.20212531  0.83167313  0.69925834     1.49400
Zn661      Zn  0.19867164  0.87370321  0.65605791     1.49100
Zn662      Zn  0.16180891  0.78851282  0.65585419     1.49500
O663        O  0.20210968  0.83268634  0.66681729    -1.80600
O664        O  0.27761892  0.83962298  0.68085244    -0.71200
O665        O  0.19806069  0.87266088  0.71141788    -0.71100
O666        O  0.24087675  0.90653928  0.63693391    -0.70600
O667        O  0.24722238  0.83584747  0.71112660    -0.71300
O668        O  0.27363268  0.88054932  0.63717436    -0.70900
O669        O  0.19701603  0.90235290  0.68163844    -0.71400
O670        O  0.12839517  0.79849167  0.63839561    -0.70800
O671        O  0.16103715  0.78585734  0.71123175    -0.71600
O672        O  0.15375997  0.85764753  0.63861626    -0.71000
O673        O  0.13356961  0.75617852  0.68101347    -0.71400
O674        O  0.17801982  0.76117820  0.63689399    -0.71300
O675        O  0.23660696  0.79413695  0.63774986    -0.71100
C676        C  0.27455099  0.83886562  0.70168882     0.80700
C677        C  0.19653855  0.89842088  0.70243470     0.81100
C678        C  0.26838461  0.90563314  0.63120163     0.80100
C679        C  0.12859074  0.82705974  0.63321180     0.80500
C680        C  0.13625382  0.75865824  0.70185025     0.81600
C681        C  0.20845392  0.76661743  0.63159703     0.80700
C682        C  0.38288706  0.86148526  0.42857218     0.06600
C683        C  0.38481565  0.83520259  0.41643672    -0.09500
C684        C  0.35665009  0.81213431  0.40305254     0.04100
C685        C  0.32622784  0.81510079  0.40197663    -0.08000
C686        C  0.32397899  0.84142147  0.41422747     0.06600
C687        C  0.35268666  0.86468590  0.42735216    -0.07400
H688        H  0.40836521  0.83298948  0.41719115     0.12200
H689        H  0.30498956  0.79760714  0.39117006     0.09800
H690        H  0.35153095  0.88535053  0.43665683     0.09600
C691        C  0.04581307  0.65184096  0.42390393     0.06600
C692        C  0.08005191  0.68085866  0.42179380    -0.09500
C693        C  0.08681898  0.71057690  0.40892493     0.04100
C694        C  0.05870853  0.71053448  0.39763263    -0.08000
C695        C  0.02435273  0.68116474  0.39948224     0.06600
C696        C  0.01795945  0.65192285  0.41273091    -0.07400
H697        H  0.10147226  0.68053289  0.43050045     0.12200
H698        H  0.06348062  0.73279493  0.38712513     0.09800
H699        H  0.49688286  0.63327494  0.41784610     0.09600
C700        C  0.22958707  0.51826204  0.40067258     0.06600
C701        C  0.20563055  0.52328955  0.41333081    -0.09500
C702        C  0.17711300  0.49410763  0.42375902     0.04100
C703        C  0.16932112  0.95235862  0.42574582    -0.08000
C704        C  0.19348276  0.94718073  0.41342521     0.06600
C705        C  0.22121358  0.97644408  0.40228960    -0.07400
H706        H  0.20904680  0.54972887  0.41494800     0.12200
H707        H  0.14768625  0.92998234  0.43424697     0.09800
H708        H  0.23950501  0.97287588  0.39210193     0.09600
C709        C  0.16862382  0.80481846  0.40585202     0.83700
N710        N  0.19653714  0.79922986  0.40629236    -0.74600
C711        C  0.23003508  0.82725994  0.40752556     0.86200
N712        N  0.23548486  0.86100736  0.40824965    -0.74500
C713        C  0.20780729  0.86680364  0.40783872     0.86300
N714        N  0.17445359  0.83860253  0.40662665    -0.76200
Zn715      Zn  0.07894178  0.54404783  0.48766305     1.49700
Zn716      Zn  0.03079369  0.95505267  0.48925064     1.49400
Zn717      Zn  0.03381115  0.99848728  0.53251735     1.49100
Zn718      Zn  0.49451411  0.50346733  0.48846821     1.49500
O719        O  0.03388577  0.99915484  0.50017255    -1.80600
O720        O  0.10822537  0.53070753  0.46844398    -0.71200
O721        O  0.02804846  0.92279414  0.51439115    -0.71100
O722        O  0.08167165  0.54304881  0.54275792    -0.70600
O723        O  0.07363512  0.96626997  0.47094376    -0.71300
O724        O  0.11000090  0.57363420  0.51263123    -0.70900
O725        O  0.03066747  0.95346307  0.54428879    -0.71400
O726        O  0.46513256  0.50462189  0.51369726    -0.70800
O727        O  0.49112450  0.92895005  0.47040166    -0.71600
O728        O  0.49248251  0.50113881  0.54365395    -0.71000
O729        O  0.46381780  0.96049020  0.47197417    -0.71400
O730        O  0.00740377  0.54594567  0.47000463    -0.71300
O731        O  0.06612314  0.57468059  0.46928416    -0.71100
C732        C  0.10072001  0.99522918  0.46489341     0.80700
C733        C  0.02853652  0.92610634  0.53521901     0.81100
C734        C  0.10777169  0.56950395  0.53343977     0.80100
C735        C  0.46765426  0.50351845  0.53450930     0.80500
C736        C  0.46525081  0.93332294  0.46570919     0.81600
C737        C  0.03688971  0.57185164  0.46366263     0.80700
C738        C  0.34532469  0.96665093  0.24207292     0.06600
C739        C  0.37563300  0.96370084  0.24297968    -0.09500
C740        C  0.40565826  0.98917181  0.25410723     0.04100
C741        C  0.41566459  0.52365812  0.26407092    -0.08000
C742        C  0.38708399  0.52955249  0.26229428     0.06600
C743        C  0.34450906  0.99479218  0.25269393    -0.07400
H744        H  0.37611829  0.94194604  0.23456869     0.12200
H745        H  0.43775184  0.54102952  0.27437758     0.09800
H746        H  0.32097438  0.99702901  0.25198211     0.09600
C747        C  0.19243798  0.67265256  0.23432169     0.06600
C748        C  0.16162688  0.63922726  0.23540682    -0.09500
C749        C  0.16082610  0.61106381  0.24763605     0.04100
C750        C  0.19170141  0.61666901  0.25809089    -0.08000
C751        C  0.22250563  0.65014154  0.25704092     0.06600
C752        C  0.22283055  0.67808994  0.24520143    -0.07400
H753        H  0.13849576  0.63530794  0.22661090     0.12200
H754        H  0.19147914  0.59529146  0.26757181     0.09800
H755        H  0.24660327  0.70405052  0.24456958     0.09600
C756        C  0.00873707  0.82198975  0.25874148     0.06600
C757        C  0.03232634  0.81624752  0.24629475    -0.09500
C758        C  0.06098843  0.84490088  0.23571951     0.04100
C759        C  0.06611334  0.87932767  0.23756453    -0.08000
C760        C  0.04239420  0.88543038  0.24969823     0.06600
C761        C  0.01366595  0.85647119  0.26043038    -0.07400
H762        H  0.02859774  0.78963142  0.24503247     0.12200
H763        H  0.08848640  0.90140035  0.22936736     0.09800
H764        H  0.50297762  0.87197193  0.27128986     0.09600
C765        C  0.06252192  0.53914335  0.25306622     0.83700
N766        N  0.06491044  0.99581545  0.25472538    -0.74600
C767        C  0.03118982  0.96794052  0.25440693     0.86200
N768        N  0.00390402  0.97439523  0.25409185    -0.74500
C769        C  0.01012402  0.00842953  0.25406795     0.86300
N770        N  0.03236599  0.54057228  0.25369578    -0.76200
Zn771      Zn  0.24521789  0.87078704  0.15643725     1.49700
Zn772      Zn  0.19730734  0.82554415  0.19772967     1.49400
Zn773      Zn  0.16179569  0.83451476  0.15372469     1.49100
Zn774      Zn  0.19786514  0.78569045  0.15375390     1.49500
O775        O  0.20052632  0.82907842  0.16542333    -1.80600
O776        O  0.27224799  0.89879311  0.18284083    -0.71200
O777        O  0.15474428  0.82716514  0.20871099    -0.71100
O778        O  0.17945548  0.87872939  0.13448864    -0.70600
O779        O  0.23960062  0.86709519  0.21151779    -0.71300
O780        O  0.23778695  0.90406196  0.13670949    -0.70900
O781        O  0.13281698  0.83774890  0.17841735    -0.71400
O782        O  0.15392205  0.75791819  0.13548674    -0.70800
O783        O  0.19477856  0.78026869  0.20900984    -0.71600
O784        O  0.12873932  0.79156462  0.13599606    -0.71000
O785        O  0.19551811  0.75296267  0.17828642    -0.71400
O786        O  0.24134181  0.79741722  0.13581051    -0.71300
O787        O  0.27566549  0.85606970  0.13990238    -0.71100
C788        C  0.26681868  0.89396699  0.20346786     0.80700
C789        C  0.13253989  0.83331276  0.19914616     0.81100
C790        C  0.21037160  0.90369015  0.12954162     0.80100
C791        C  0.12895170  0.76349107  0.13032828     0.80500
C792        C  0.19450384  0.75430814  0.19916254     0.81600
C793        C  0.27029610  0.82633728  0.13259342     0.80700
Zn794      Zn  0.41614614  0.71962144  0.34275323     1.49700
Zn795      Zn  0.37961951  0.67570582  0.29887352     1.49400
Zn796      Zn  0.37969200  0.63404345  0.34293564     1.49100
Zn797      Zn  0.33193871  0.67020120  0.34084727     1.49500
O798        O  0.37694194  0.67495520  0.33130370    -1.80600
O799        O  0.44515337  0.75296015  0.31789180    -0.71200
O800        O  0.38500492  0.63471989  0.28768502    -0.71100
O801        O  0.42309925  0.65056937  0.36158112    -0.70600
O802        O  0.42040790  0.72249975  0.28736688    -0.71300
O803        O  0.44871493  0.70980968  0.36139423    -0.70900
O804        O  0.38270801  0.60485536  0.31818030    -0.71400
O805        O  0.30334643  0.62607568  0.35951506    -0.70800
O806        O  0.33465030  0.66960793  0.28563648    -0.71600
O807        O  0.33678972  0.60100887  0.36139878    -0.71000
O808        O  0.30208095  0.66613865  0.31476106    -0.71400
O809        O  0.33953856  0.71243438  0.35874889    -0.71300
O810        O  0.39795294  0.74578373  0.36128621    -0.71100
C811        C  0.44373495  0.75044180  0.29700426     0.80700
C812        C  0.38493671  0.60855596  0.29734684     0.81100
C813        C  0.44786407  0.68115041  0.36727517     0.80100
C814        C  0.30868222  0.60134725  0.36618792     0.80500
C815        C  0.30644721  0.66603517  0.29407121     0.81600
C816        C  0.36705479  0.73986658  0.36571662     0.80700
C817        C  0.04927377  0.92254084  0.25125966    -0.12900
C818        C  0.02371414  0.93069778  0.25414447    -0.28100
H819        H  0.07625281  0.94395957  0.24864433     0.16100
H820        H  0.99634345  0.90964124  0.25539581     0.16700
C821        C  0.49155927  0.80521732  0.27346789    -0.09800
C822        C  0.46938459  0.78013114  0.28397762    -0.11300
C823        C  0.10661167  0.83583605  0.21218683    -0.09800
C824        C  0.08543687  0.83922992  0.22301303    -0.11300
C825        C  0.12801057  0.57587294  0.25005155    -0.12900
C826        C  0.09604407  0.57299205  0.25025714    -0.28100
H827        H  0.13027893  0.55235468  0.25294142     0.16100
H828        H  0.09400229  0.59685384  0.24880586     0.16700
C829        C  0.19329668  0.72569180  0.21192361    -0.09800
C830        C  0.19276404  0.70151806  0.22220572    -0.11300
C831        C  0.25332729  0.65625929  0.26898981    -0.09800
C832        C  0.27827763  0.66117853  0.27990787    -0.11300
C833        C  0.47029481  0.01368842  0.25451006    -0.12900
C834        C  0.43747105  0.98546536  0.25406244    -0.28100
H835        H  0.47428438  0.04048603  0.25506591     0.16100
H836        H  0.43859739  0.46026340  0.25137243     0.16700
C837        C  0.29252462  0.91957370  0.21806725    -0.09800
C838        C  0.31563948  0.94119665  0.22954659    -0.11300
C839        C  0.38683733  0.58193112  0.28438587    -0.09800
C840        C  0.38734958  0.55847621  0.27407022    -0.11300
C841        C  0.21429657  0.90364339  0.40878272    -0.12900
C842        C  0.18795372  0.91060608  0.41188065    -0.28100
H843        H  0.24141186  0.92531487  0.40765511     0.16100
H844        H  0.16126570  0.88856402  0.41444092     0.16700
C845        C  0.28178380  0.57262153  0.37915589    -0.09800
C846        C  0.25831688  0.54809522  0.38930407    -0.11300
C847        C  0.14814317  0.99097464  0.44027208    -0.09800
C848        C  0.12669474  0.99351532  0.45137828    -0.11300
C849        C  0.12367606  0.74072567  0.40758527    -0.12900
C850        C  0.13189422  0.77482796  0.40499890    -0.28100
H851        H  0.14468837  0.73485301  0.41055722     0.16100
H852        H  0.11106142  0.78129603  0.40343866     0.16700
C853        C  0.47596101  0.68323849  0.38051152    -0.09800
C854        C  0.49974406  0.68419291  0.39103155    -0.11300
C855        C  0.03734399  0.59872546  0.44958319    -0.09800
C856        C  0.03973984  0.62220353  0.43770789    -0.11300
C857        C  0.26010410  0.82073704  0.40816914    -0.12900
C858        C  0.29306937  0.84676990  0.41294855    -0.28100
H859        H  0.25464119  0.79373283  0.40540059     0.16100
H860        H  0.29750806  0.87307207  0.41704898     0.16700
C861        C  0.35960346  0.78612575  0.38995773    -0.09800
C862        C  0.36300961  0.76495502  0.37894816    -0.11300
C863        C  0.41225614  0.88579901  0.44190162    -0.09800
C864        C  0.43670177  0.90694358  0.45285582    -0.11300
C865        C  0.38177898  0.58871917  0.58898238    -0.12900
C866        C  0.35578035  0.59593003  0.59293630    -0.28100
H867        H  0.40832440  0.61065761  0.58583578     0.16100
H868        H  0.32869666  0.57441642  0.59469332     0.16700
C869        C  0.31837885  0.95854118  0.60784822    -0.09800
C870        C  0.29487146  0.93414408  0.61799367    -0.11300
C871        C  0.42580032  0.01066432  0.56146225    -0.09800
C872        C  0.44186447  0.50546839  0.54809442    -0.11300
C873        C  0.44683215  0.75873404  0.58947004    -0.12900
C874        C  0.43868042  0.72485476  0.59326005    -0.28100
H875        H  0.42571178  0.76442488  0.58644645     0.16100
H876        H  0.45946477  0.71834145  0.59486096     0.16700
C877        C  0.07394095  0.82232719  0.61165148    -0.09800
C878        C  0.09912761  0.82458851  0.62123154    -0.11300
C879        C  0.02409988  0.87482479  0.56112280    -0.09800
C880        C  0.02650047  0.89812954  0.54903477    -0.11300
C881        C  0.27749025  0.65341656  0.58887997    -0.12900
C882        C  0.31070446  0.67947672  0.59295795    -0.28100
H883        H  0.27251168  0.62665809  0.58563548     0.16100
H884        H  0.31661023  0.70680867  0.59481320     0.16700
C885        C  0.21376968  0.71843899  0.60812282    -0.09800
C886        C  0.21124333  0.74064018  0.61855618    -0.11300
C887        C  0.15990346  0.61615521  0.55811860    -0.09800
C888        C  0.13586820  0.59523393  0.54683236    -0.11300
C889        C  0.04338745  0.56682911  0.73859787    -0.12900
C890        C  0.01776259  0.57463901  0.74230464    -0.28100
H891        H  0.07064684  0.58805138  0.73710127     0.16100
H892        H  0.99095127  0.55302081  0.74515395     0.16700
C893        C  0.11014644  0.72986633  0.71507344    -0.09800
C894        C  0.08704623  0.70520881  0.72528697    -0.11300
C895        C  0.47801587  0.65145910  0.77390086    -0.09800
C896        C  0.45633417  0.65365711  0.78498927    -0.11300
C897        C  0.10288907  0.00912260  0.76127310    -0.12900
C898        C  0.10979237  0.98274666  0.75724351    -0.28100
H899        H  0.12432545  0.03627439  0.76341757     0.16100
H900        H  0.08804790  0.95620109  0.75372801     0.16700
C901        C  0.26290141  0.56853075  0.78394731    -0.09800
C902        C  0.23895936  0.54761893  0.77263267    -0.11300
C903        C  0.19030615  0.94434583  0.72764980    -0.09800
C904        C  0.19370736  0.92363481  0.71620784    -0.11300
C905        C  0.45588002  0.90530979  0.74260344    -0.12900
C906        C  0.46330527  0.93913100  0.73970865    -0.28100
H907        H  0.47740150  0.90004441  0.74509690     0.16100
H908        H  0.44216325  0.94520436  0.73857004     0.16700
C909        C  0.37585333  0.78497997  0.77191071    -0.09800
C910        C  0.37330952  0.76090903  0.78325153    -0.11300
C911        C  0.32721411  0.84279439  0.72497955    -0.09800
C912        C  0.30285750  0.84126595  0.71483458    -0.11300
C913        C  0.45952608  0.74836757  0.88415512    -0.09800
C914        C  0.48255622  0.76904960  0.89612211    -0.11300
C915        C  0.03792815  0.88036594  0.94531896    -0.09800
C916        C  0.03952343  0.90527422  0.95514593    -0.11300
C917        C  0.09862269  0.81266214  0.92727331    -0.12900
C918        C  0.13153230  0.84064324  0.92817243    -0.28100
H919        H  0.09466025  0.78607453  0.92491034     0.16100
H920        H  0.13574822  0.86751817  0.92888036     0.16700
C921        C  0.18692498  0.76667144  0.92365309    -0.12900
C922        C  0.21341548  0.76051923  0.91898806    -0.28100
H923        H  0.16069196  0.74443446  0.92696688     0.16100
H924        H  0.23905000  0.78291220  0.91447748     0.16700
C925        C  0.27371941  0.67438886  0.88024664    -0.09800
C926        C  0.25371067  0.67958964  0.89110378    -0.11300
C927        C  0.15103667  0.63070148  0.94033564    -0.09800
C928        C  0.12879482  0.60504831  0.95034310    -0.11300
C929        C  0.28954924  0.90254925  0.91480896    -0.12900
C930        C  0.25744147  0.89917026  0.91583791    -0.28100
H931        H  0.29233662  0.87927125  0.91738453     0.16100
H932        H  0.25509371  0.92290471  0.91484276     0.16700
C933        C  0.35112772  0.53152274  0.89055054    -0.09800
C934        C  0.35158486  0.55547912  0.88006085    -0.11300
C935        C  0.41308160  0.98460259  0.93597887    -0.09800
C936        C  0.43750632  0.98910399  0.94725937    -0.11300
C937        C  0.28149793  0.59508921  0.08775872    -0.12900
C938        C  0.31389533  0.60069187  0.09248469    -0.28100
H939        H  0.27808388  0.61784488  0.08451329     0.16100
H940        H  0.31830531  0.57831462  0.09426220     0.16700
C941        C  0.21462484  0.93262842  0.11566433    -0.09800
C942        C  0.21906986  0.95771775  0.10449060    -0.11300
C943        C  0.17287461  0.01595523  0.05589488    -0.09800
C944        C  0.13899936  0.51368516  0.04479372    -0.11300
C945        C  0.39012636  0.76373727  0.09470546    -0.12900
C946        C  0.36344377  0.73003194  0.09708604    -0.28100
H947        H  0.41680188  0.76867307  0.09233945     0.16100
H948        H  0.33642476  0.72454284  0.09794034     0.16700
C949        C  0.32216347  0.82501880  0.11125279    -0.09800
C950        C  0.29811152  0.82541067  0.12066396    -0.11300
C951        C  0.44690685  0.90499839  0.05031171    -0.09800
C952        C  0.42652313  0.88193733  0.06264642    -0.11300
C953        C  0.44264991  0.68041795  0.09623802    -0.12900
C954        C  0.44928803  0.65392712  0.09197320    -0.28100
H955        H  0.46427693  0.70741044  0.09858352     0.16100
H956        H  0.42735963  0.62755070  0.08832572     0.16700
C957        C  0.07394519  0.71385961  0.10897845    -0.09800
C958        C  0.09948525  0.73681208  0.11827081    -0.11300
C959        C  0.02261257  0.61158300  0.05914654    -0.09800
C960        C  0.02587573  0.59157413  0.04700746    -0.11300
C961        C  0.53866348  0.18416164  0.09553300     0.06600
C962        C  0.54448896  0.16111931  0.08248587    -0.09500
C963        C  0.51670159  0.13407654  0.07065676     0.04100
C964        C  0.48293560  0.12986912  0.07181163    -0.08000
C965        C  0.98434316  0.16042880  0.08862745     0.06600
C966        C  0.50485017  0.18020145  0.09656548    -0.07400
H967        H  0.57062184  0.16427862  0.08148995     0.12200
H968        H  0.96963880  0.11450296  0.06820598     0.09800
H969        H  0.50057729  0.19805286  0.10682494     0.09600
C970        C  0.89665765  0.34965667  0.07267025     0.06600
C971        C  0.86777968  0.34940658  0.08274782    -0.09500
C972        C  0.84315379  0.31933186  0.09468319     0.04100
C973        C  0.84731909  0.28933075  0.09633212    -0.08000
C974        C  0.87629488  0.28942199  0.08613640     0.06600
C975        C  0.90096291  0.31991449  0.07452819    -0.07400
H976        H  0.86459991  0.37258528  0.08142241     0.12200
H977        H  0.82851927  0.26651169  0.10595153     0.09800
H978        H  0.92345028  0.32037257  0.06668759     0.09600
C979        C  0.68760687  0.51377680  0.07285112     0.06600
C980        C  0.68537227  0.48388722  0.08335279    -0.09500
C981        C  0.71278682  0.48765139  0.09695628     0.04100
C982        C  0.74783254  0.02210279  0.09200454    -0.08000
C983        C  0.74925673  0.05155607  0.08110638     0.06600
C984        C  0.72055087  0.04634773  0.06823508    -0.07400
H985        H  0.66229768  0.45780440  0.08103054     0.12200
H986        H  0.76906984  0.02563350  0.10269906     0.09800
H987        H  0.72111502  0.06886904  0.05997918     0.09600
C988        C  0.84205054  0.13294341  0.08915801     0.83700
N989        N  0.87558665  0.13914631  0.09014667    -0.74600
C990        C  0.90327828  0.17304534  0.09111888     0.86200
N991        N  0.89716949  0.20079858  0.09114512    -0.74500
C992        C  0.86363769  0.19486390  0.09019783     0.86300
N993        N  0.83621168  0.16091314  0.08921266    -0.76200
C994        C  0.88517251  0.98450295  0.93191312     0.06600
C995        C  0.85551119  0.44735335  0.92251254    -0.09500
C996        C  0.82466740  0.44043030  0.91151836     0.04100
C997        C  0.82430051  0.46832232  0.89956981    -0.08000
C998        C  0.85587982  0.00543190  0.90710796     0.06600
C999        C  0.88546025  0.01200872  0.91951222    -0.07400
H1000       H  0.85607366  0.42628139  0.93188325     0.12200
H1001       H  0.80103344  0.46345165  0.89053897     0.09800
H1002       H  0.90865278  0.03841254  0.91947768     0.09600
C1003       C  0.68159145  0.16120727  0.93007581     0.06600
C1004       C  0.70556279  0.15632239  0.91752794    -0.09500
C1005       C  0.73350735  0.18524761  0.90670754     0.04100
C1006       C  0.73753768  0.21934226  0.90831836    -0.08000
C1007       C  0.71338238  0.22477102  0.92056704     0.06600
C1008       C  0.68550175  0.19532737  0.93171945    -0.07400
H1009       H  0.70249125  0.12996761  0.91619983     0.12200
H1010       H  0.75916466  0.24155443  0.89970922     0.09800
H1011       H  0.66706436  0.19867298  0.94186600     0.09600
C1012       C  0.72780634  0.36596907  0.91929328     0.83700
N1013       N  0.69787889  0.36731382  0.92207067    -0.74600
C1014       C  0.66665891  0.33740500  0.92584005     0.86200
N1015       N  0.66523262  0.30545248  0.92687857    -0.74500
C1016       C  0.69498685  0.30341320  0.92424323     0.86300
N1017       N  0.72652631  0.33386069  0.92037580    -0.75000
C1018       C  0.51286899  0.29779409  0.91058590     0.06600
C1019       C  0.54156794  0.29258995  0.91386379    -0.09500
C1020       C  0.57084411  0.31718581  0.92595160     0.04100
C1021       C  0.57047823  0.34646567  0.93556112    -0.08000
C1022       C  0.54181638  0.35176186  0.93239624     0.06600
C1023       C  0.51296877  0.32743609  0.91982575    -0.07400
H1024       H  0.54162942  0.26998412  0.90635190     0.12200
H1025       H  0.59239078  0.36521620  0.94551990     0.09800
H1026       H  0.98944597  0.32879440  0.91772785     0.09600
Zn1027     Zn  0.53789046  0.50205858  0.03058783     1.49700
Zn1028     Zn  0.53252540  0.04027477  0.98588922     1.49400
Zn1029     Zn  0.57913815  0.00255109  0.98441470     1.49100
Zn1030     Zn  0.99509069  0.45726494  0.98842566     1.49500
O1031       O  0.53900369  0.50383626  0.99823202    -1.80600
O1032       O  0.53709278  0.04364942  0.04078255    -0.71200
O1033       O  0.57587176  0.07496563  0.96876126    -0.71100
O1034       O  0.61095970  0.00349613  0.00865950    -0.70600
O1035       O  0.52757369  0.06763312  0.01093743    -0.71300
O1036       O  0.58420339  0.00439737  0.03966017    -0.70900
O1037       O  0.60763141  0.04802283  0.96641311    -0.71400
O1038       O  0.51312244  0.43067542  0.96994753    -0.70800
O1039       O  0.99377614  0.02856503  0.97398371    -0.71600
O1040       O  0.57168620  0.46345779  0.96836679    -0.71000
O1041       O  0.96471886  0.46710525  0.96821332    -0.71400
O1042       O  0.96520663  0.42836938  0.01416463    -0.71300
O1043       O  0.99681390  0.45748813  0.04340921    -0.71100
C1044       C  0.53100268  0.06642996  0.03165297     0.80700
C1045       C  0.60317600  0.07435030  0.96231987     0.81100
C1046       C  0.60962532  0.00440136  0.02954928     0.80100
C1047       C  0.54281398  0.43536021  0.96365956     0.80500
C1048       C  0.96624562  0.49561888  0.96141727     0.81600
C1049       C  0.96979172  0.43139094  0.03486848     0.80700
C1050       C  0.85363902  0.34186530  0.73766031     0.06600
C1051       C  0.84915282  0.31267009  0.75024416    -0.09500
C1052       C  0.87832023  0.31341364  0.76017052     0.04100
C1053       C  0.91191973  0.34334543  0.75753740    -0.08000
C1054       C  0.91674099  0.37297455  0.74524637     0.06600
C1055       C  0.88732461  0.37197549  0.73519115    -0.07400
H1056       H  0.82315281  0.28934145  0.75210985     0.12200
H1057       H  0.93438754  0.34366856  0.76522957     0.09800
H1058       H  0.89053872  0.39399046  0.72500228     0.09600
C1059       C  0.71226697  0.02187136  0.76104759     0.06600
C1060       C  0.71412622  0.49773966  0.74847708    -0.09500
C1061       C  0.68577397  0.47322878  0.73573960     0.04100
C1062       C  0.65591759  0.47682459  0.73317162    -0.08000
C1063       C  0.65428088  0.50507411  0.74335184     0.06600
C1064       C  0.68326518  0.02688909  0.75889126    -0.07400
H1065       H  0.73723619  0.49498267  0.75041618     0.12200
H1066       H  0.63457474  0.45811654  0.72285822     0.09800
H1067       H  0.68311078  0.04866640  0.76748652     0.09600
C1068       C  0.55695831  0.17519934  0.73816339     0.06600
C1069       C  0.53292650  0.17992190  0.75088500    -0.09500
C1070       C  0.50503460  0.15067706  0.76163239     0.04100
C1071       C  0.50121333  0.11678260  0.75967289    -0.08000
C1072       C  0.52540219  0.11180315  0.74724635     0.06600
C1073       C  0.55328229  0.14127931  0.73638080    -0.07400
H1074       H  0.53569687  0.20613476  0.75221928     0.12200
H1075       H  0.99618091  0.10005013  0.77726357     0.09800
H1076       H  0.57156118  0.13789484  0.72606703     0.09600
C1077       C  0.49859806  0.46656824  0.73583356     0.83700
N1078       N  0.52682072  0.46149674  0.73575329    -0.74600
C1079       C  0.56017020  0.48983818  0.73622771     0.86200
N1080       N  0.56693411  0.02545456  0.74038973    -0.74500
C1081       C  0.53927088  0.03130859  0.74058107     0.86300
N1082       N  0.50397642  0.50022953  0.73644801    -0.76200
Zn1083     Zn  0.82477475  0.16286791  0.82324556     1.49700
Zn1084     Zn  0.86455330  0.15850927  0.86646686     1.49400
Zn1085     Zn  0.86214665  0.11533645  0.82337451     1.49100
Zn1086     Zn  0.90879931  0.20112998  0.82336577     1.49500
O1087       O  0.86512598  0.15943826  0.83410872    -1.80600
O1088       O  0.79754538  0.16790087  0.84833022    -0.71200
O1089       O  0.86047248  0.11284002  0.87869938    -0.71100
O1090       O  0.81865342  0.08732541  0.80473754    -0.70600
O1091       O  0.82460226  0.16415990  0.87835430    -0.71300
O1092       O  0.79206646  0.11963020  0.80556665    -0.70900
O1093       O  0.85976711  0.08337727  0.84864168    -0.71400
O1094       O  0.93737475  0.18574878  0.80520084    -0.70800
O1095       O  0.90899933  0.19985880  0.87839783    -0.71600
O1096       O  0.90488607  0.12646207  0.80486758    -0.71000
O1097       O  0.93902722  0.23052179  0.84871111    -0.71400
O1098       O  0.89867831  0.23330287  0.80429427    -0.71300
O1099       O  0.84009922  0.20597051  0.80373021    -0.71100
C1100       C  0.80078987  0.16818851  0.86913442     0.80700
C1101       C  0.85921789  0.08590806  0.86949475     0.81100
C1102       C  0.79340892  0.09234996  0.79940541     0.80100
C1103       C  0.93237684  0.15545438  0.79930683     0.80500
C1104       C  0.93559308  0.22632873  0.86949917     0.81600
C1105       C  0.87017984  0.23152943  0.79801151     0.80700
C1106       C  0.69118458  0.13937462  0.57216505     0.06600
C1107       C  0.68925231  0.16634202  0.58349346    -0.09500
C1108       C  0.71683761  0.18929877  0.59728410     0.04100
C1109       C  0.74664430  0.18549013  0.59958874    -0.08000
C1110       C  0.74879175  0.15841907  0.58818633     0.06600
C1111       C  0.72068349  0.13527349  0.57467117    -0.07400
H1112       H  0.66621697  0.16927276  0.58172405     0.12200
H1113       H  0.76752582  0.20299619  0.61060983     0.09800
H1114       H  0.72187741  0.11415406  0.56593679     0.09600
C1115       C  0.52102566  0.34608726  0.57359183     0.06600
C1116       C  0.48708337  0.31713694  0.57719262    -0.09500
C1117       C  0.98451061  0.28861456  0.58678654     0.04100
C1118       C  0.51099702  0.28968361  0.60118032    -0.08000
C1119       C  0.54504624  0.31881124  0.59774751     0.06600
C1120       C  0.55002393  0.34693245  0.58386740    -0.07400
H1121       H  0.96793059  0.31784552  0.56585630     0.12200
H1122       H  0.50741995  0.26843742  0.61224217     0.09800
H1123       H  0.57630121  0.36948511  0.58120594     0.09600
C1124       C  0.84556977  0.48726364  0.59766270     0.06600
C1125       C  0.84861813  0.02151999  0.60046897    -0.09500
C1126       C  0.87676144  0.05081697  0.58959234     0.04100
C1127       C  0.90026934  0.04526118  0.57682004    -0.08000
C1128       C  0.89796918  0.51216251  0.57454471     0.06600
C1129       C  0.86968852  0.48270068  0.58490687    -0.07400
H1130       H  0.83075128  0.02526524  0.61096381     0.12200
H1131       H  0.92215885  0.06760509  0.56846519     0.09800
H1132       H  0.86659916  0.45640780  0.58317614     0.09600
C1133       C  0.90366552  0.19445132  0.59448857     0.83700
N1134       N  0.89773869  0.16057529  0.59488244    -0.74600
C1135       C  0.86425868  0.13237264  0.59541232     0.86200
N1136       N  0.83665833  0.13829126  0.59553354    -0.74500
C1137       C  0.84226029  0.17210385  0.59514354     0.86300
N1138       N  0.87580656  0.20009170  0.59464333    -0.76200
Zn1139     Zn  0.74446534  0.33453002  0.65664513     1.49700
Zn1140     Zn  0.69964150  0.33026671  0.69947677     1.49400
Zn1141     Zn  0.69655985  0.37093400  0.65568702     1.49100
Zn1142     Zn  0.66014492  0.28585519  0.65601991     1.49500
O1143       O  0.70011913  0.33035443  0.66700752    -1.80600
O1144       O  0.77511761  0.33713594  0.68202282    -0.71200
O1145       O  0.69534471  0.37157082  0.71108503    -0.71100
O1146       O  0.73937049  0.40430310  0.63737751    -0.70600
O1147       O  0.74432265  0.33411478  0.71194736    -0.71300
O1148       O  0.77258165  0.37884161  0.63818926    -0.70900
O1149       O  0.69318328  0.39936260  0.68069205    -0.71400
O1150       O  0.62741687  0.29544012  0.63738318    -0.70800
O1151       O  0.65823963  0.28487578  0.71139999    -0.71600
O1152       O  0.65286826  0.35460080  0.63718261    -0.71000
O1153       O  0.63118704  0.25428457  0.68132044    -0.71400
O1154       O  0.67706047  0.25817166  0.63791681    -0.71300
O1155       O  0.73557561  0.29214020  0.63848745    -0.71100
C1156       C  0.77166130  0.33662104  0.70282793     0.80700
C1157       C  0.69299270  0.39648935  0.70154326     0.81100
C1158       C  0.76724814  0.40383310  0.63209691     0.80100
C1159       C  0.62800630  0.32399510  0.63160315     0.80500
C1160       C  0.63355903  0.25745357  0.70214941     0.81600
C1161       C  0.70766841  0.26410342  0.63260488     0.80700
C1162       C  0.88305323  0.36128845  0.42702933     0.06600
C1163       C  0.88423159  0.33407277  0.41549590    -0.09500
C1164       C  0.85563852  0.31063287  0.40250722     0.04100
C1165       C  0.82558578  0.31420319  0.40121601    -0.08000
C1166       C  0.82407962  0.34144395  0.41286752     0.06600
C1167       C  0.85319509  0.36505681  0.42558659    -0.07400
H1168       H  0.90749198  0.33137526  0.41643416     0.12200
H1169       H  0.80403955  0.29639983  0.39070119     0.09800
H1170       H  0.85258217  0.38637582  0.43445699     0.09600
C1171       C  0.54738641  0.15274070  0.42429794     0.06600
C1172       C  0.58140844  0.18193160  0.42165253    -0.09500
C1173       C  0.58733450  0.21158134  0.40898736     0.04100
C1174       C  0.55853873  0.21131115  0.39846268    -0.08000
C1175       C  0.52435934  0.18178732  0.40084693     0.06600
C1176       C  0.51885342  0.15260969  0.41387698    -0.07400
H1177       H  0.60334854  0.18177442  0.42977356     0.12200
H1178       H  0.56262109  0.23348280  0.38810183     0.09800
H1179       H  0.99602010  0.13229179  0.41854943     0.09600
C1180       C  0.72803378  0.01587531  0.39916773     0.06600
C1181       C  0.70398869  0.02074047  0.41183474    -0.09500
C1182       C  0.67566088  0.99146633  0.42234046     0.04100
C1183       C  0.67012192  0.45348737  0.42429648    -0.08000
C1184       C  0.69462829  0.44850880  0.41222263     0.06600
C1185       C  0.72282882  0.47802283  0.40156636    -0.07400
H1186       H  0.70725352  0.04711752  0.41345726     0.12200
H1187       H  0.64815276  0.43094240  0.43245446     0.09800
H1188       H  0.74140697  0.47465676  0.39154883     0.09600
C1189       C  0.66902533  0.30585066  0.40468866     0.83700
N1190       N  0.69684125  0.30011983  0.40517634    -0.74600
C1191       C  0.73040590  0.32804269  0.40624312     0.86200
N1192       N  0.73604647  0.36186760  0.40678070    -0.74500
C1193       C  0.70847166  0.36783188  0.40632438     0.86300
N1194       N  0.67503107  0.33971411  0.40526889    -0.76200
Zn1195     Zn  0.58099941  0.04381720  0.48753349     1.49700
Zn1196     Zn  0.53161068  0.45570954  0.48816752     1.49400
Zn1197     Zn  0.53409384  0.49854270  0.53160561     1.49100
Zn1198     Zn  0.99337542  0.00254087  0.48944855     1.49500
O1199       O  0.53472854  0.49971329  0.49926330    -1.80600
O1200       O  0.60894564  0.02926928  0.46792762    -0.71200
O1201       O  0.52964001  0.42364714  0.51315867    -0.71100
O1202       O  0.58416244  0.04354283  0.54261714    -0.70600
O1203       O  0.57403228  0.46695159  0.46942479    -0.71300
O1204       O  0.61295330  0.07316483  0.51233648    -0.70900
O1205       O  0.53111309  0.45344613  0.54323663    -0.71400
O1206       O  0.96358516  0.00261278  0.51486877    -0.70800
O1207       O  0.99120866  0.42946028  0.46905484    -0.71600
O1208       O  0.99222701  0.00090968  0.54468117    -0.71000
O1209       O  0.96255592  0.45962165  0.47121627    -0.71400
O1210       O  0.51002690  0.04688958  0.46999574    -0.71300
O1211       O  0.56872210  0.07512514  0.46926686    -0.71100
C1212       C  0.60136877  0.49591965  0.46368395     0.80700
C1213       C  0.52971806  0.42652502  0.53400204     0.81100
C1214       C  0.61064933  0.06940663  0.53317854     0.80100
C1215       C  0.96668737  0.00214719  0.53567755     0.80500
C1216       C  0.96493320  0.43321215  0.46445523     0.81600
C1217       C  0.53961592  0.07262118  0.46364177     0.80700
C1218       C  0.84484516  0.46606527  0.23905350     0.06600
C1219       C  0.87510677  0.46313983  0.24099632    -0.09500
C1220       C  0.90413421  0.48824145  0.25306053     0.04100
C1221       C  0.91810020  0.02651124  0.26036370    -0.08000
C1222       C  0.88911218  0.03183778  0.25913804     0.06600
C1223       C  0.84320258  0.49395531  0.24951041    -0.07400
H1224       H  0.87631027  0.44163887  0.23276366     0.12200
H1225       H  0.94021083  0.04383433  0.27066882     0.09800
H1226       H  0.81975468  0.49622058  0.24804038     0.09600
C1227       C  0.69418163  0.17128817  0.23108191     0.06600
C1228       C  0.66353449  0.13772794  0.23148892    -0.09500
C1229       C  0.66214410  0.10948817  0.24391870     0.04100
C1230       C  0.69239309  0.11512849  0.25523713    -0.08000
C1231       C  0.72311137  0.14874312  0.25483039     0.06600
C1232       C  0.72395334  0.17679047  0.24278192    -0.07400
H1233       H  0.64088503  0.13381025  0.22211034     0.12200
H1234       H  0.69168800  0.09368551  0.26491172     0.09800
H1235       H  0.74757649  0.20288444  0.24268285     0.09600
C1236       C  0.50778643  0.31982004  0.25984819     0.06600
C1237       C  0.53189189  0.31415042  0.24796374    -0.09500
C1238       C  0.56053965  0.34272217  0.23734122     0.04100
C1239       C  0.56506678  0.37701522  0.23855722    -0.08000
C1240       C  0.54082679  0.38302443  0.25019822     0.06600
C1241       C  0.51215613  0.35410115  0.26097862    -0.07400
H1242       H  0.52855776  0.28764719  0.24716650     0.12200
H1243       H  0.58742073  0.39904338  0.23032149     0.09800
H1244       H  0.00290853  0.37309239  0.27645933     0.09600
C1245       C  0.56358853  0.03803851  0.24845341     0.83700
N1246       N  0.56263130  0.49308886  0.25585500    -0.74600
C1247       C  0.52896573  0.46514006  0.25582268     0.86200
N1248       N  0.50159487  0.47145172  0.25647777    -0.74500
C1249       C  0.50768962  0.50542978  0.25711799     0.86300
N1250       N  0.53380576  0.04001990  0.25024792    -0.76200
Zn1251     Zn  0.74131429  0.36776419  0.15396355     1.49700
Zn1252     Zn  0.69647104  0.32352264  0.19638454     1.49400
Zn1253     Zn  0.65715929  0.33130947  0.15392791     1.49100
Zn1254     Zn  0.69297145  0.28266252  0.15160829     1.49500
O1255       O  0.69698779  0.32629450  0.16398868    -1.80600
O1256       O  0.77070853  0.39618097  0.17975335    -0.71200
O1257       O  0.65453511  0.32486649  0.20915380    -0.71100
O1258       O  0.67373212  0.37642380  0.13592173    -0.70600
O1259       O  0.73962514  0.36566252  0.20916763    -0.71300
O1260       O  0.73220477  0.40141943  0.13573597    -0.70900
O1261       O  0.62970938  0.33386362  0.17973041    -0.71400
O1262       O  0.64769753  0.25492122  0.13425480    -0.70800
O1263       O  0.69556493  0.27868526  0.20689360    -0.71600
O1264       O  0.62298802  0.28890867  0.13590282    -0.71000
O1265       O  0.69261826  0.25040799  0.17578457    -0.71400
O1266       O  0.73512595  0.29387473  0.13234686    -0.71300
O1267       O  0.77020997  0.35254148  0.13579876    -0.71100
C1268       C  0.76648552  0.39216987  0.20050279     0.80700
C1269       C  0.63125340  0.33025688  0.20041014     0.81100
C1270       C  0.70422671  0.40150185  0.13031799     0.80100
C1271       C  0.62267770  0.26077087  0.12971373     0.80500
C1272       C  0.69410357  0.25243382  0.19667165     0.81600
C1273       C  0.76399824  0.32253582  0.12839321     0.80700
Zn1274     Zn  0.91428937  0.21692465  0.34347747     1.49700
Zn1275     Zn  0.87897784  0.17478630  0.29874098     1.49400
Zn1276     Zn  0.87890301  0.13180423  0.34213483     1.49100
Zn1277     Zn  0.83056096  0.16798432  0.34032743     1.49500
O1278       O  0.87572904  0.17282117  0.33112901    -1.80600
O1279       O  0.94353392  0.25102880  0.31930329    -0.71200
O1280       O  0.88531890  0.13478851  0.28688635    -0.71100
O1281       O  0.92212741  0.14798029  0.36119590    -0.70600
O1282       O  0.91954691  0.22216972  0.28817244    -0.71300
O1283       O  0.94670187  0.20706370  0.36207231    -0.70900
O1284       O  0.88273762  0.10371773  0.31685193    -0.71400
O1285       O  0.80226732  0.12363061  0.35859741    -0.70800
O1286       O  0.83418536  0.16867915  0.28520972    -0.71600
O1287       O  0.83552960  0.09825014  0.36009400    -0.71000
O1288       O  0.80082182  0.16407635  0.31412204    -0.71400
O1289       O  0.83748264  0.20978628  0.35854090    -0.71300
O1290       O  0.89575218  0.24254269  0.36207964    -0.71100
C1291       C  0.94249447  0.24958439  0.29839947     0.80700
C1292       C  0.88539526  0.10837646  0.29607315     0.81100
C1293       C  0.94635504  0.17849539  0.36747369     0.80100
C1294       C  0.80747888  0.09869140  0.36496325     0.80500
C1295       C  0.80565990  0.16456725  0.29344857     0.81600
C1296       C  0.86481992  0.23683661  0.36604333     0.80700
C1297       C  0.54727776  0.42004127  0.25146559    -0.12900
C1298       C  0.52166894  0.42797949  0.25498571    -0.28100
H1299       H  0.57408426  0.44160165  0.24852296     0.16100
H1300       H  0.49439826  0.40684895  0.25661602     0.16700
C1301       C  0.99053251  0.30591235  0.27638316    -0.09800
C1302       C  0.96814409  0.28001790  0.28608338    -0.11300
C1303       C  0.60622649  0.33308088  0.21424139    -0.09800
C1304       C  0.58533395  0.33693910  0.22508262    -0.11300
C1305       C  0.62916877  0.07432564  0.24583312    -0.12900
C1306       C  0.59728822  0.07166345  0.24551167    -0.28100
H1307       H  0.63118132  0.05073669  0.24903679     0.16100
H1308       H  0.59548825  0.09564939  0.24392144     0.16700
C1309       C  0.69437904  0.22422886  0.20902129    -0.09800
C1310       C  0.69462480  0.20027536  0.21907360    -0.11300
C1311       C  0.75324291  0.15487965  0.26762451    -0.09800
C1312       C  0.77772977  0.15977170  0.27903937    -0.11300
C1313       C  0.96857983  0.51330321  0.25593794    -0.12900
C1314       C  0.93605661  0.48482495  0.25424174    -0.28100
H1315       H  0.97217002  0.53995049  0.25633809     0.16100
H1316       H  0.94130875  0.96355797  0.24719085     0.16700
C1317       C  0.79291256  0.41844688  0.21455775    -0.09800
C1318       C  0.81587589  0.44048003  0.22599757    -0.11300
C1319       C  0.88793196  0.08260476  0.28256923    -0.09800
C1320       C  0.88890906  0.05994916  0.27162092    -0.11300
C1321       C  0.71516454  0.40475231  0.40725952    -0.12900
C1322       C  0.68895518  0.41188910  0.41045375    -0.28100
H1323       H  0.74233375  0.42630523  0.40615564     0.16100
H1324       H  0.66222130  0.38990413  0.41295901     0.16700
C1325       C  0.78046713  0.06994568  0.37776650    -0.09800
C1326       C  0.75677790  0.04564880  0.38786913    -0.11300
C1327       C  0.64876068  0.49189809  0.43889405    -0.09800
C1328       C  0.62724490  0.49429396  0.45001813    -0.11300
C1329       C  0.62408888  0.24182673  0.40703368    -0.12900
C1330       C  0.63222679  0.27588079  0.40421954    -0.28100
H1331       H  0.64524283  0.23607544  0.40974374     0.16100
H1332       H  0.61137683  0.28235021  0.40284463     0.16700
C1333       C  0.97445128  0.18081358  0.38085782    -0.09800
C1334       C  0.99845496  0.18269177  0.39162126    -0.11300
C1335       C  0.54025252  0.09969142  0.44961775    -0.09800
C1336       C  0.54222534  0.12316963  0.43789417    -0.11300
C1337       C  0.76028958  0.32125205  0.40701428    -0.12900
C1338       C  0.79344296  0.34722429  0.41143428    -0.28100
H1339       H  0.75449878  0.29405283  0.40465642     0.16100
H1340       H  0.79824857  0.37379521  0.41511377     0.16700
C1341       C  0.85777156  0.28364595  0.38996421    -0.09800
C1342       C  0.86066569  0.26191512  0.37921935    -0.11300
C1343       C  0.91265390  0.38574973  0.44016076    -0.09800
C1344       C  0.93693971  0.40692841  0.45121217    -0.11300
C1345       C  0.88312526  0.08770420  0.59149422    -0.12900
C1346       C  0.85737712  0.09534267  0.59520220    -0.28100
H1347       H  0.90979071  0.10940706  0.58833990     0.16100
H1348       H  0.83021503  0.07401644  0.59700383     0.16700
C1349       C  0.81715116  0.45726423  0.60900337    -0.09800
C1350       C  0.79388796  0.43268105  0.61917052    -0.11300
C1351       C  0.92287567  0.50781836  0.56130376    -0.09800
C1352       C  0.94077740  0.00353248  0.54946032    -0.11300
C1353       C  0.94795855  0.25822123  0.58932986    -0.12900
C1354       C  0.94032121  0.22453899  0.59332207    -0.28100
H1355       H  0.92652115  0.26352058  0.58655260     0.16100
H1356       H  0.96136517  0.21836507  0.59472397     0.16700
C1357       C  0.57477190  0.32018819  0.60888808    -0.09800
C1358       C  0.59932221  0.32166004  0.61881740    -0.11300
C1359       C  0.52571241  0.37490732  0.55939314    -0.09800
C1360       C  0.52801577  0.39848827  0.54760674    -0.11300
C1361       C  0.77920991  0.15254945  0.59045951    -0.12900
C1362       C  0.81232704  0.17876073  0.59457654    -0.28100
H1363       H  0.77443102  0.12586249  0.58720650     0.16100
H1364       H  0.81805548  0.20604834  0.59637616     0.16700
C1365       C  0.71401005  0.21620433  0.60944067    -0.09800
C1366       C  0.71096913  0.23817620  0.61980375    -0.11300
C1367       C  0.66271261  0.11552767  0.55812843    -0.09800
C1368       C  0.63896607  0.09491802  0.54654092    -0.11300
C1369       C  0.54589573  0.06817543  0.74163968    -0.12900
C1370       C  0.51973464  0.07522157  0.74531830    -0.28100
H1371       H  0.57300787  0.08976186  0.74023137     0.16100
H1372       H  0.49310086  0.05320817  0.74809992     0.16700
C1373       C  0.60736902  0.22915676  0.71558479    -0.09800
C1374       C  0.58470549  0.20488365  0.72625036    -0.11300
C1375       C  0.98179269  0.15286240  0.77580653    -0.09800
C1376       C  0.95888755  0.15395407  0.78620649    -0.11300
C1377       C  0.59046275  0.48376399  0.73696756    -0.12900
C1378       C  0.62349293  0.51036009  0.74095225    -0.28100
H1379       H  0.58500106  0.45655339  0.73533945     0.16100
H1380       H  0.62796686  0.53702325  0.74385923     0.16700
C1381       C  0.76551588  0.06654665  0.78592714    -0.09800
C1382       C  0.74155625  0.04573020  0.77455267    -0.11300
C1383       C  0.68785772  0.44507511  0.72465219    -0.09800
C1384       C  0.69007609  0.42236896  0.71460543    -0.11300
C1385       C  0.95305824  0.40377729  0.74277165    -0.12900
C1386       C  0.96034965  0.43746740  0.73926220    -0.28100
H1387       H  0.97470995  0.39869393  0.74520141     0.16100
H1388       H  0.93914736  0.44345044  0.73815522     0.16700
C1389       C  0.87412396  0.28354591  0.77308133    -0.09800
C1390       C  0.87200402  0.25944393  0.78424587    -0.11300
C1391       C  0.82391109  0.34037399  0.72651947    -0.09800
C1392       C  0.79959489  0.33880198  0.71628868    -0.11300
C1393       C  0.96255308  0.25219049  0.88345727    -0.09800
C1394       C  0.98519308  0.27308061  0.89555194    -0.11300
C1395       C  0.54238155  0.38228032  0.94219279    -0.09800
C1396       C  0.54339373  0.40740460  0.95137734    -0.11300
C1397       C  0.60203249  0.31251080  0.92733991    -0.12900
C1398       C  0.63492050  0.34059522  0.92779237    -0.28100
H1399       H  0.59808655  0.28581550  0.92565279     0.16100
H1400       H  0.63903794  0.36745652  0.92779332     0.16700
C1401       C  0.69154663  0.26763310  0.92516266    -0.12900
C1402       C  0.71818925  0.26141159  0.92117942    -0.28100
H1403       H  0.66524461  0.24540606  0.92829956     0.16100
H1404       H  0.74397659  0.28375039  0.91688308     0.16700
C1405       C  0.77724561  0.17400621  0.88259058    -0.09800
C1406       C  0.75764608  0.17954972  0.89364208    -0.11300
C1407       C  0.65314720  0.13088502  0.94125690    -0.09800
C1408       C  0.63012047  0.10480481  0.95053750    -0.11300
C1409       C  0.79288944  0.40433777  0.91374785    -0.12900
C1410       C  0.76046221  0.40009870  0.91487217    -0.28100
H1411       H  0.79639550  0.38154782  0.91657438     0.16100
H1412       H  0.75746040  0.42342577  0.91358825     0.16700
C1413       C  0.85643992  0.03376798  0.89407133    -0.09800
C1414       C  0.85740785  0.05756018  0.88301468    -0.11300
C1415       C  0.91541996  0.48869863  0.93517152    -0.09800
C1416       C  0.93936839  0.49285283  0.94682596    -0.11300
C1417       C  0.77937497  0.08835014  0.08348267    -0.12900
C1418       C  0.81248680  0.09590508  0.08776420    -0.28100
H1419       H  0.77430402  0.11010887  0.08049682     0.16100
H1420       H  0.81851633  0.07459797  0.08941913     0.16700
C1421       C  0.70725534  0.43125925  0.11790263    -0.09800
C1422       C  0.70993313  0.45686475  0.10815735    -0.11300
C1423       C  0.65947062  0.50999247  0.05880737    -0.09800
C1424       C  0.63782518  0.00570124  0.04214024    -0.11300
C1425       C  0.88253126  0.25886109  0.08771668    -0.12900
C1426       C  0.85654778  0.22478276  0.08992985    -0.28100
H1427       H  0.90952247  0.26457075  0.08566542     0.16100
H1428       H  0.82922797  0.21836081  0.09062078     0.16700
C1429       C  0.81421285  0.31976089  0.10577496    -0.09800
C1430       C  0.79081560  0.32085487  0.11563795    -0.11300
C1431       C  0.94376007  0.40422510  0.04895256    -0.09800
C1432       C  0.92196110  0.38014579  0.06013930    -0.11300
C1433       C  0.93994596  0.18013781  0.09183247    -0.12900
C1434       C  0.94777982  0.15410956  0.08910046    -0.28100
H1435       H  0.96086517  0.20758693  0.09375929     0.16100
H1436       H  0.92658535  0.12714976  0.08586933     0.16700
C1437       C  0.56770911  0.21195225  0.10762375    -0.09800
C1438       C  0.59283532  0.23452983  0.11753237    -0.11300
C1439       C  0.52291103  0.11097542  0.05689387    -0.09800
C1440       C  0.52724136  0.09113118  0.04525467    -0.11300
C1441       C  0.54815866  0.69022594  0.09887239     0.06600
C1442       C  0.55273483  0.66671498  0.08541293    -0.09500
C1443       C  0.52385887  0.63940632  0.07441804     0.04100
C1444       C  0.49036954  0.63556248  0.07688825    -0.08000
C1445       C  0.98016833  0.65328431  0.09155649     0.06600
C1446       C  0.51460330  0.68654265  0.10119886    -0.07400
H1447       H  0.57865624  0.66959183  0.08355849     0.12200
H1448       H  0.96204791  0.60849600  0.06961794     0.09800
H1449       H  0.51133850  0.70452548  0.11194831     0.09600
C1450       C  0.90698500  0.85133729  0.07988247     0.06600
C1451       C  0.87848426  0.85252061  0.08942953    -0.09500
C1452       C  0.85251956  0.82294666  0.10109278     0.04100
C1453       C  0.85492420  0.79201235  0.10310090    -0.08000
C1454       C  0.88330282  0.79040744  0.09339026     0.06600
C1455       C  0.90944965  0.82046542  0.08201435    -0.07400
H1456       H  0.87652279  0.87638162  0.08780168     0.12200
H1457       H  0.83502747  0.76966520  0.11254579     0.09800
H1458       H  0.93150726  0.81965127  0.07451050     0.09600
C1459       C  0.69111065  0.01230658  0.06591119     0.06600
C1460       C  0.68990876  0.98310209  0.07665967    -0.09500
C1461       C  0.71817870  0.98801035  0.08980496     0.04100
C1462       C  0.74265727  0.52142752  0.09993760    -0.08000
C1463       C  0.74523147  0.55166526  0.08933188     0.06600
C1464       C  0.71727708  0.54750797  0.07600077    -0.07400
H1465       H  0.66684554  0.95679698  0.07510181     0.12200
H1466       H  0.76333852  0.52404012  0.11082665     0.09800
H1467       H  0.71878202  0.57054265  0.06784331     0.09600
C1468       C  0.83970756  0.63094320  0.09773591     0.83700
N1469       N  0.87266258  0.63539628  0.09831781    -0.74600
C1470       C  0.90148313  0.66865137  0.09896081     0.86200
N1471       N  0.89714832  0.69748787  0.09901835    -0.74500
C1472       C  0.86434862  0.69343349  0.09842061     0.86300
N1473       N  0.83567767  0.66009717  0.09777666    -0.76200
C1474       C  0.88508052  0.48168376  0.92237946     0.06600
C1475       C  0.85525942  0.95035105  0.93195835    -0.09500
C1476       C  0.82516992  0.94348054  0.92001346     0.04100
C1477       C  0.82584985  0.97124253  0.90734368    -0.08000
C1478       C  0.85408904  0.50271145  0.89925319     0.06600
C1479       C  0.88440546  0.50929559  0.91075633    -0.07400
H1480       H  0.85511584  0.92926182  0.94172343     0.12200
H1481       H  0.80330185  0.96633771  0.89749065     0.09800
H1482       H  0.90730441  0.53590256  0.91082621     0.09600
C1483       C  0.68449214  0.66425232  0.93106764     0.06600
C1484       C  0.70740135  0.65919961  0.91751821    -0.09500
C1485       C  0.73441598  0.68799711  0.90599472     0.04100
C1486       C  0.73852266  0.72211370  0.90793228    -0.08000
C1487       C  0.71535318  0.72761111  0.92120569     0.06600
C1488       C  0.68851057  0.69833617  0.93302909    -0.07400
H1489       H  0.70424641  0.63284059  0.91597082     0.12200
H1490       H  0.75939478  0.74425843  0.89882364     0.09800
H1491       H  0.67094786  0.70182883  0.94394737     0.09600
C1492       C  0.72787828  0.86797532  0.92354365     0.83700
N1493       N  0.69732471  0.86846656  0.92527358    -0.74600
C1494       C  0.66609155  0.83789725  0.92751138     0.86200
N1495       N  0.66534060  0.80626038  0.92804967    -0.74500
C1496       C  0.69566691  0.80509738  0.92634779     0.86300
N1497       N  0.72717541  0.83612970  0.92404513    -0.75000
C1498       C  0.51092034  0.79367925  0.90992975     0.06600
C1499       C  0.54050993  0.78980411  0.91290195    -0.09500
C1500       C  0.56920023  0.81462864  0.92536563     0.04100
C1501       C  0.56732172  0.84270924  0.93554243    -0.08000
C1502       C  0.53782748  0.84665405  0.93256905     0.06600
C1503       C  0.50959144  0.82215680  0.91973917    -0.07400
H1504       H  0.54164835  0.76806196  0.90496060     0.12200
H1505       H  0.58867996  0.86159449  0.94579161     0.09800
H1506       H  0.98645809  0.83075298  0.91960523     0.09600
Zn1507     Zn  0.53951696  0.00173212  0.02916502     1.49700
Zn1508     Zn  0.53622577  0.54548618  0.98808930     1.49400
Zn1509     Zn  0.58254236  0.50673863  0.98705939     1.49100
Zn1510     Zn  0.99940326  0.95970286  0.99441790     1.49500
O1511       O  0.53666245  0.00002424  0.99697030    -1.80600
O1512       O  0.53598550  0.54398221  0.04317782    -0.71200
O1513       O  0.57981961  0.57950710  0.97089719    -0.71100
O1514       O  0.61284303  0.50777697  0.01252719    -0.70600
O1515       O  0.53260822  0.57291390  0.01374986    -0.71300
O1516       O  0.58143733  0.50339959  0.04249095    -0.70900
O1517       O  0.61149946  0.55236715  0.96930170    -0.71400
O1518       O  0.50862527  0.92447984  0.97163581    -0.70800
O1519       O  0.99057733  0.52630168  0.96728052    -0.71600
O1520       O  0.56652581  0.95873475  0.96617618    -0.71000
O1521       O  0.96644004  0.96940266  0.97644089    -0.71400
O1522       O  0.97282808  0.93020028  0.02093483    -0.71300
O1523       O  0.00628308  0.96032659  0.04937777    -0.71100
C1524       C  0.53342900  0.56933313  0.03450265     0.80700
C1525       C  0.60714026  0.57863200  0.96477825     0.81100
C1526       C  0.60882568  0.50608551  0.03335573     0.80100
C1527       C  0.53759508  0.92961998  0.96357239     0.80500
C1528       C  0.96801776  0.99786997  0.96946408     0.81600
C1529       C  0.97908723  0.93348536  0.04147937     0.80700
C1530       C  0.85186180  0.84512773  0.73976886     0.06600
C1531       C  0.85108689  0.81570029  0.74992763    -0.09500
C1532       C  0.88003224  0.82024945  0.76221311     0.04100
C1533       C  0.90989408  0.85418545  0.76418356    -0.08000
C1534       C  0.91101522  0.88388010  0.75383971     0.06600
C1535       C  0.88163825  0.87906761  0.74181987    -0.07400
H1536       H  0.82791321  0.78944829  0.74848676     0.12200
H1537       H  0.93162942  0.85735135  0.77424495     0.09800
H1538       H  0.88201500  0.90175250  0.73393372     0.09600
C1539       C  0.71284490  0.52604687  0.75849499     0.06600
C1540       C  0.71279417  0.99393813  0.74996887    -0.09500
C1541       C  0.68433169  0.97101281  0.73671340     0.04100
C1542       C  0.65513344  0.97587312  0.73469162    -0.08000
C1543       C  0.65432009  0.00381469  0.74592321     0.06600
C1544       C  0.68314658  0.52978825  0.75580570    -0.07400
H1545       H  0.73540569  0.99024645  0.75149923     0.12200
H1546       H  0.63366315  0.95841619  0.72401331     0.09800
H1547       H  0.68237937  0.55182819  0.76360214     0.09600
C1548       C  0.55536713  0.67282590  0.73748535     0.06600
C1549       C  0.53134965  0.67710414  0.75051197    -0.09500
C1550       C  0.50316730  0.64743345  0.76075328     0.04100
C1551       C  0.49908529  0.61353178  0.75801687    -0.08000
C1552       C  0.52323959  0.60894839  0.74525495     0.06600
C1553       C  0.55136608  0.63888870  0.73487326    -0.07400
H1554       H  0.53432347  0.70332053  0.75244451     0.12200
H1555       H  0.97869517  0.59487896  0.76526861     0.09800
H1556       H  0.56962677  0.63591290  0.72429462     0.09600
C1557       C  0.49991362  0.96930005  0.73953445     0.83700
N1558       N  0.52777329  0.96370340  0.73934939    -0.74600
C1559       C  0.56129792  0.99163705  0.73978709     0.86200
N1560       N  0.56520020  0.52340782  0.73678749    -0.74500
C1561       C  0.53725102  0.52875606  0.73692728     0.86300
N1562       N  0.50580634  0.00311321  0.74014172    -0.76200
Zn1563     Zn  0.82613215  0.66764602  0.82126576     1.49700
Zn1564     Zn  0.86296141  0.65900558  0.86464579     1.49400
Zn1565     Zn  0.86251679  0.61951465  0.82013687     1.49100
Zn1566     Zn  0.91026932  0.70477095  0.82319270     1.49500
O1567       O  0.86554198  0.66275282  0.83233698    -1.80600
O1568       O  0.79873306  0.67286976  0.84625470    -0.71200
O1569       O  0.85803999  0.61208270  0.87536566    -0.71100
O1570       O  0.81938441  0.59289138  0.80107352    -0.70600
O1571       O  0.82247421  0.66406340  0.87629097    -0.71300
O1572       O  0.79289253  0.62518392  0.80307054    -0.70900
O1573       O  0.85904081  0.58560867  0.84428686    -0.71400
O1574       O  0.94000990  0.69039098  0.80526011    -0.70800
O1575       O  0.90643078  0.69973690  0.87823859    -0.71600
O1576       O  0.90565268  0.63160526  0.80186465    -0.71000
O1577       O  0.93816938  0.73270093  0.84965077    -0.71400
O1578       O  0.90183583  0.73813942  0.80422692    -0.71300
O1579       O  0.84335696  0.71144879  0.80221291    -0.71100
C1580       C  0.80028738  0.67061812  0.86706252     0.80700
C1581       C  0.85727171  0.58607567  0.86518383     0.81100
C1582       C  0.79412856  0.59815540  0.79623377     0.80100
C1583       C  0.93419172  0.66054030  0.79783547     0.80500
C1584       C  0.93325661  0.72717485  0.87029580     0.81600
C1585       C  0.87391983  0.73698532  0.79731801     0.80700
C1586       C  0.68710142  0.63475748  0.57393376     0.06600
C1587       C  0.68588356  0.66248791  0.58479809    -0.09500
C1588       C  0.71412561  0.68605180  0.59796115     0.04100
C1589       C  0.74381956  0.68208537  0.60011831    -0.08000
C1590       C  0.74545050  0.65444420  0.58908111     0.06600
C1591       C  0.71666535  0.63063579  0.57620443    -0.07400
H1592       H  0.66292073  0.66556800  0.58314425     0.12200
H1593       H  0.76508015  0.70006375  0.61074891     0.09800
H1594       H  0.71740681  0.60905655  0.56775450     0.09600
C1595       C  0.52438377  0.84750446  0.57209359     0.06600
C1596       C  0.49010020  0.81856190  0.57460733    -0.09500
C1597       C  0.98086317  0.78842818  0.59247021     0.04100
C1598       C  0.51214000  0.78871748  0.59805545    -0.08000
C1599       C  0.54645873  0.81778564  0.59567598     0.06600
C1600       C  0.55256820  0.84710617  0.58262298    -0.07400
H1601       H  0.96357287  0.81582836  0.57049313     0.12200
H1602       H  0.50774585  0.76663705  0.60860632     0.09800
H1603       H  0.57908730  0.86964517  0.58082873     0.09600
C1604       C  0.84400553  0.98723596  0.59828962     0.06600
C1605       C  0.84959818  0.52126533  0.59989536    -0.09500
C1606       C  0.87780026  0.55097591  0.58939981     0.04100
C1607       C  0.90207334  0.54614023  0.57694251    -0.08000
C1608       C  0.89550884  0.01104095  0.57448115     0.06600
C1609       C  0.86738852  0.98202379  0.58521862    -0.07400
H1610       H  0.83121054  0.52448414  0.61020507     0.12200
H1611       H  0.92403703  0.56884017  0.56889616     0.09800
H1612       H  0.86384054  0.95553729  0.58352075     0.09600
C1613       C  0.90114328  0.69310290  0.59779897     0.83700
N1614       N  0.89603971  0.65954485  0.59716244    -0.74600
C1615       C  0.86288370  0.63087973  0.59611624     0.86200
N1616       N  0.83476316  0.63597747  0.59571744    -0.74500
C1617       C  0.83954035  0.66944969  0.59630728     0.86300
N1618       N  0.87276561  0.69790537  0.59735596    -0.76200
Zn1619     Zn  0.74338615  0.83322588  0.65640753     1.49700
Zn1620     Zn  0.69809817  0.82888830  0.69929297     1.49400
Zn1621     Zn  0.69499639  0.86910441  0.65555746     1.49100
Zn1622     Zn  0.65925151  0.78397159  0.65604776     1.49500
O1623       O  0.69891367  0.82876395  0.66686969    -1.80600
O1624       O  0.77370571  0.83562156  0.68189976    -0.71200
O1625       O  0.69363005  0.87019419  0.71079446    -0.71100
O1626       O  0.73794426  0.90305003  0.63769027    -0.70600
O1627       O  0.74273650  0.83294166  0.71169328    -0.71300
O1628       O  0.77160596  0.87808474  0.63830221    -0.70900
O1629       O  0.69063238  0.89735196  0.68035841    -0.71400
O1630       O  0.62677916  0.79308557  0.63695320    -0.70800
O1631       O  0.65681971  0.78347391  0.71136298    -0.71600
O1632       O  0.65193507  0.85224005  0.63655484    -0.71000
O1633       O  0.63017244  0.75250611  0.68132898    -0.71400
O1634       O  0.67639906  0.75633250  0.63827376    -0.71300
O1635       O  0.73484254  0.79097118  0.63806353    -0.71100
C1636       C  0.77006959  0.83528667  0.70268511     0.80700
C1637       C  0.69071624  0.89475687  0.70121612     0.81100
C1638       C  0.76606600  0.90306166  0.63246297     0.80100
C1639       C  0.62740940  0.82153310  0.63088110     0.80500
C1640       C  0.63234511  0.75585672  0.70214742     0.81600
C1641       C  0.70694488  0.76256233  0.63259259     0.80700
C1642       C  0.88466056  0.86481921  0.42324022     0.06600
C1643       C  0.88518657  0.83665733  0.41240341    -0.09500
C1644       C  0.85683088  0.81364069  0.39906742     0.04100
C1645       C  0.82777639  0.81865464  0.39673122    -0.08000
C1646       C  0.82694437  0.84677000  0.40770101     0.06600
C1647       C  0.85579470  0.86999118  0.42068990    -0.07400
H1648       H  0.90759793  0.83272157  0.41429440     0.12200
H1649       H  0.80629054  0.80103599  0.38610633     0.09800
H1650       H  0.85552440  0.89181355  0.42914935     0.09600
C1651       C  0.55166194  0.65666350  0.42680359     0.06600
C1652       C  0.58565396  0.68613384  0.42431329    -0.09500
C1653       C  0.59145873  0.71551576  0.41135166     0.04100
C1654       C  0.56271897  0.71467387  0.40045875    -0.08000
C1655       C  0.52871209  0.68514468  0.40282311     0.06600
C1656       C  0.52316978  0.65620213  0.41607864    -0.07400
H1657       H  0.60761731  0.68629476  0.43261139     0.12200
H1658       H  0.56668951  0.73641785  0.38972657     0.09800
H1659       H  0.99145818  0.62926301  0.41425416     0.09600
C1660       C  0.72645499  0.51195831  0.40320347     0.06600
C1661       C  0.70205697  0.51662688  0.41554636    -0.09500
C1662       C  0.67390990  0.48738688  0.42610434     0.04100
C1663       C  0.67146225  0.95742385  0.42013508    -0.08000
C1664       C  0.69568021  0.95232426  0.40779903     0.06600
C1665       C  0.72386289  0.98179569  0.39714562    -0.07400
H1666       H  0.70481084  0.54284540  0.41678798     0.12200
H1667       H  0.64954306  0.93488900  0.42833375     0.09800
H1668       H  0.74223423  0.97836337  0.38695745     0.09600
C1669       C  0.67173774  0.80995005  0.40367144     0.83700
N1670       N  0.69986611  0.80478847  0.40328516    -0.74600
C1671       C  0.73323353  0.83306938  0.40255300     0.86200
N1672       N  0.73839903  0.86673428  0.40221200    -0.74500
C1673       C  0.71044317  0.87212559  0.40256639     0.86300
N1674       N  0.67717905  0.84361636  0.40326999    -0.76200
Zn1675     Zn  0.57868780  0.54126748  0.48883399     1.49700
Zn1676     Zn  0.53578209  0.95833309  0.48789181     1.49400
Zn1677     Zn  0.53917509  0.00184852  0.53141342     1.49100
Zn1678     Zn  0.99428841  0.50287375  0.48913134     1.49500
O1679       O  0.53816389  0.00198231  0.49905568    -1.80600
O1680       O  0.60660793  0.52619683  0.46978762    -0.71200
O1681       O  0.53548100  0.92734867  0.51300488    -0.71100
O1682       O  0.57847181  0.53972730  0.54399575    -0.70600
O1683       O  0.57752057  0.96996854  0.46808182    -0.71300
O1684       O  0.60965348  0.56903135  0.51430529    -0.70900
O1685       O  0.53666146  0.95698639  0.54311839    -0.71400
O1686       O  0.96590102  0.50425636  0.51493470    -0.70800
O1687       O  0.98798389  0.92766908  0.46991449    -0.71600
O1688       O  0.99569737  0.50313332  0.54424617    -0.71000
O1689       O  0.96243274  0.96094183  0.46985756    -0.71400
O1690       O  0.51043371  0.54821079  0.47028118    -0.71300
O1691       O  0.56899831  0.57464644  0.47077378    -0.71100
C1692       C  0.60416793  0.99915936  0.46180250     0.80700
C1693       C  0.53552920  0.93020291  0.53384936     0.81100
C1694       C  0.60598066  0.56514165  0.53509242     0.80100
C1695       C  0.96978219  0.50419373  0.53567632     0.80500
C1696       C  0.96365357  0.93357329  0.46371400     0.81600
C1697       C  0.54074520  0.57371321  0.46481469     0.80700
C1698       C  0.85930023  0.98061322  0.23517648     0.06600
C1699       C  0.88812469  0.97521255  0.23656298    -0.09500
C1700       C  0.91783147  0.99816020  0.24895602     0.04100
C1701       C  0.90214983  0.51588088  0.26376050    -0.08000
C1702       C  0.87187321  0.51880491  0.26196109     0.06600
C1703       C  0.85976786  0.00894861  0.24643490    -0.07400
H1704       H  0.88745739  0.95307598  0.22790149     0.12200
H1705       H  0.92382313  0.53487321  0.27377480     0.09800
H1706       H  0.83723661  0.01287074  0.24556177     0.09600
C1707       C  0.68892851  0.68266047  0.23936583     0.06600
C1708       C  0.65519741  0.65257633  0.24077199    -0.09500
C1709       C  0.64959318  0.62200627  0.25230130     0.04100
C1710       C  0.67829361  0.62221919  0.26284570    -0.08000
C1711       C  0.71204102  0.65252280  0.26158226     0.06600
C1712       C  0.71734249  0.68262380  0.24974968    -0.07400
H1713       H  0.63329039  0.65286081  0.23270134     0.12200
H1714       H  0.67443625  0.59943393  0.27247483     0.09800
H1715       H  0.74343788  0.70605529  0.24878958     0.09600
C1716       C  0.51899299  0.83481617  0.26111438     0.06600
C1717       C  0.54346576  0.82997835  0.24898115    -0.09500
C1718       C  0.57065130  0.85860385  0.23737468     0.04100
C1719       C  0.57339350  0.89219980  0.23785427    -0.08000
C1720       C  0.54879640  0.89746950  0.24965078     0.06600
C1721       C  0.52164356  0.86847415  0.26147218    -0.07400
H1722       H  0.54144336  0.80400923  0.24864394     0.12200
H1723       H  0.59450049  0.91420961  0.22878439     0.09800
H1724       H  0.99567588  0.86066802  0.27050660     0.09600
C1725       C  0.56894389  0.52708951  0.25648046     0.83700
N1726       N  0.56148398  0.00560105  0.24922982    -0.74600
C1727       C  0.52946497  0.97536579  0.25181131     0.86200
N1728       N  0.49989223  0.97790122  0.25358077    -0.74500
C1729       C  0.50197578  0.01020530  0.25281137     0.86300
N1730       N  0.54135174  0.53306477  0.25712802    -0.76200
Zn1731     Zn  0.74982633  0.87703516  0.15354180     1.49700
Zn1732     Zn  0.70661283  0.83873744  0.19762262     1.49400
Zn1733     Zn  0.66550360  0.84018503  0.15441709     1.49100
Zn1734     Zn  0.70194350  0.79204025  0.15535597     1.49500
O1735       O  0.70594985  0.83695554  0.16525721    -1.80600
O1736       O  0.78024606  0.90891906  0.17790867    -0.71200
O1737       O  0.66580649  0.84294375  0.20955816    -0.71100
O1738       O  0.68141368  0.88264361  0.13414529    -0.70600
O1739       O  0.75105768  0.88153455  0.20856272    -0.71300
O1740       O  0.73987264  0.90746726  0.13298588    -0.70900
O1741       O  0.63819598  0.84546584  0.17949256    -0.71400
O1742       O  0.65760262  0.76302580  0.13750447    -0.70800
O1743       O  0.70350624  0.79433857  0.21075977    -0.71600
O1744       O  0.63171820  0.79597779  0.13772619    -0.71000
O1745       O  0.69922681  0.76188230  0.18139416    -0.71400
O1746       O  0.74464724  0.80076782  0.13747306    -0.71300
O1747       O  0.77854630  0.85988106  0.13715459    -0.71100
C1748       C  0.77738480  0.90704140  0.19877372     0.80700
C1749       C  0.64130573  0.84577173  0.20031644     0.81100
C1750       C  0.71159014  0.90663506  0.12725364     0.80100
C1751       C  0.63222497  0.76794300  0.13232072     0.80500
C1752       C  0.70037847  0.76623632  0.20212058     0.81600
C1753       C  0.77299795  0.82906824  0.13209964     0.80700
Zn1754     Zn  0.90761595  0.71220141  0.34117544     1.49700
Zn1755     Zn  0.86675991  0.66636350  0.29857724     1.49400
Zn1756     Zn  0.87197981  0.62718706  0.34233540     1.49100
Zn1757     Zn  0.82355917  0.66324298  0.34225942     1.49500
O1758       O  0.86747405  0.66722817  0.33103745    -1.80600
O1759       O  0.93504650  0.74322303  0.31540924    -0.71200
O1760       O  0.86911096  0.62391027  0.28704926    -0.71100
O1761       O  0.91719149  0.64461892  0.35952300    -0.70600
O1762       O  0.90763470  0.71156864  0.28572557    -0.71300
O1763       O  0.94146127  0.70368477  0.35927583    -0.70900
O1764       O  0.87209613  0.59662668  0.31744050    -0.71400
O1765       O  0.79679048  0.61957725  0.36152247    -0.70800
O1766       O  0.82153691  0.66190223  0.28698618    -0.71600
O1767       O  0.83077166  0.59495556  0.36202186    -0.71000
O1768       O  0.79147218  0.65874551  0.31732490    -0.71400
O1769       O  0.83295738  0.70665969  0.35981374    -0.71300
O1770       O  0.89148246  0.74036827  0.35929994    -0.71100
C1771       C  0.93215942  0.73955286  0.29463365     0.80700
C1772       C  0.87068883  0.59856211  0.29659723     0.81100
C1773       C  0.94181786  0.67553493  0.36484849     0.80100
C1774       C  0.80294015  0.59517124  0.36773437     0.80500
C1775       C  0.79423145  0.65880838  0.29648521     0.81600
C1776       C  0.86122676  0.73490841  0.36504208     0.80700
C1777       C  0.55285888  0.93372858  0.24951483    -0.12900
C1778       C  0.52578176  0.93952755  0.25273872    -0.28100
H1779       H  0.57872090  0.95622875  0.24553863     0.16100
H1780       H  0.49941501  0.91713418  0.25547893     0.16700
C1781       C  0.98029359  0.79259849  0.27045881    -0.09800
C1782       C  0.95764660  0.76801965  0.28095614    -0.11300
C1783       C  0.61648264  0.84968575  0.21377440    -0.09800
C1784       C  0.59562057  0.85349994  0.22472708    -0.11300
C1785       C  0.61318868  0.59109644  0.25358689    -0.12900
C1786       C  0.60565963  0.55714853  0.25617764    -0.28100
H1787       H  0.59172453  0.59647092  0.25117121     0.16100
H1788       H  0.62673626  0.55097455  0.25724858     0.16700
C1789       C  0.69762872  0.73821289  0.21611103    -0.09800
C1790       C  0.69424738  0.71342770  0.22706579    -0.11300
C1791       C  0.74111562  0.65341288  0.27311170    -0.09800
C1792       C  0.76557060  0.65546543  0.28336855    -0.11300
C1793       C  0.98096235  0.01616071  0.25359703    -0.12900
C1794       C  0.94732651  0.99071653  0.25023385    -0.28100
H1795       H  0.98773282  0.04379092  0.25524040     0.16100
H1796       H  0.93287976  0.45848452  0.25221611     0.16700
C1797       C  0.80500845  0.93432720  0.21168378    -0.09800
C1798       C  0.82912169  0.95629699  0.22246803    -0.11300
C1799       C  0.87050817  0.57097198  0.28352089    -0.09800
C1800       C  0.87043677  0.54718634  0.27326246    -0.11300
C1801       C  0.71657740  0.90886958  0.40278013    -0.12900
C1802       C  0.69021142  0.91575931  0.40613582    -0.28100
H1803       H  0.74359995  0.93056241  0.40116725     0.16100
H1804       H  0.66365977  0.89368884  0.40906412     0.16700
C1805       C  0.77719417  0.56649399  0.38116520    -0.09800
C1806       C  0.75453328  0.54180762  0.39158024    -0.11300
C1807       C  0.65097513  0.99602241  0.43572799    -0.09800
C1808       C  0.62974344  0.99803282  0.44744658    -0.11300
C1809       C  0.62796762  0.74605962  0.40905996    -0.12900
C1810       C  0.63529408  0.77960878  0.40494987    -0.28100
H1811       H  0.64952514  0.74100038  0.41199703     0.16100
H1812       H  0.61407933  0.78551501  0.40346154     0.16700
C1813       C  0.97111993  0.67871961  0.37733617    -0.09800
C1814       C  0.99562990  0.68053894  0.38750294    -0.11300
C1815       C  0.54323547  0.60235732  0.45146515    -0.09800
C1816       C  0.54634341  0.62681267  0.44021573    -0.11300
C1817       C  0.76332539  0.82668861  0.40270043    -0.12900
C1818       C  0.79672590  0.85305139  0.40581037    -0.28100
H1819       H  0.75745542  0.79928998  0.40139486     0.16100
H1820       H  0.80188251  0.87999019  0.40858427     0.16700
C1821       C  0.85775529  0.78512446  0.38753257    -0.09800
C1822       C  0.85899085  0.76177921  0.37753626    -0.11300
C1823       C  0.91345457  0.88834941  0.43724457    -0.09800
C1824       C  0.93669020  0.90865303  0.44928153    -0.11300
C1825       C  0.88336717  0.58753207  0.59157058    -0.12900
C1826       C  0.85692171  0.59425111  0.59497601    -0.28100
H1827       H  0.91000301  0.60972207  0.58911026     0.16100
H1828       H  0.82985996  0.57244915  0.59598139     0.16700
C1829       C  0.81572186  0.95744361  0.60985042    -0.09800
C1830       C  0.79267538  0.93247726  0.61988278    -0.11300
C1831       C  0.91969420  0.00602459  0.56098472    -0.09800
C1832       C  0.94420429  0.50563742  0.54981184    -0.11300
C1833       C  0.94456752  0.75751610  0.59487597    -0.12900
C1834       C  0.93754440  0.72385984  0.59810005    -0.28100
H1835       H  0.92282794  0.76232093  0.59201031     0.16100
H1836       H  0.95902041  0.71832795  0.59957326     0.16700
C1837       C  0.57525972  0.81803457  0.60724148    -0.09800
C1838       C  0.59919489  0.81903714  0.61760151    -0.11300
C1839       C  0.53032418  0.87758230  0.55871579    -0.09800
C1840       C  0.53356395  0.90197910  0.54736609    -0.11300
C1841       C  0.77618999  0.64894560  0.59106919    -0.12900
C1842       C  0.80917132  0.67539561  0.59536295    -0.28100
H1843       H  0.77172611  0.62238950  0.58776367     0.16100
H1844       H  0.81455210  0.70252859  0.59732710     0.16700
C1845       C  0.71222121  0.71382899  0.60968269    -0.09800
C1846       C  0.71002910  0.73644405  0.61986993    -0.11300
C1847       C  0.65801145  0.61047968  0.56040848    -0.09800
C1848       C  0.63399641  0.58997380  0.54893154    -0.11300
C1849       C  0.54354101  0.56548195  0.73829475    -0.12900
C1850       C  0.51743614  0.57237534  0.74258233    -0.28100
H1851       H  0.57060558  0.58714915  0.73685670     0.16100
H1852       H  0.49088891  0.55024152  0.74542611     0.16700
C1853       C  0.60615825  0.72751687  0.71557703    -0.09800
C1854       C  0.58336520  0.70299073  0.72602806    -0.11300
C1855       C  0.98193584  0.65675502  0.77322188    -0.09800
C1856       C  0.96059986  0.65930450  0.78446327    -0.11300
C1857       C  0.59100069  0.98466359  0.74012056    -0.12900
C1858       C  0.62432486  0.01046411  0.74411298    -0.28100
H1859       H  0.58483828  0.95727811  0.73811065     0.16100
H1860       H  0.62960903  0.03728909  0.74749745     0.16700
C1861       C  0.76600518  0.57269916  0.78271759    -0.09800
C1862       C  0.74199374  0.55136348  0.77157062    -0.11300
C1863       C  0.68563201  0.94311671  0.72470500    -0.09800
C1864       C  0.68762283  0.92058044  0.71427609    -0.11300
C1865       C  0.94173066  0.92042892  0.75586817    -0.12900
C1866       C  0.97480726  0.92725633  0.75949917    -0.28100
H1867       H  0.93709856  0.94255989  0.75326563     0.16100
H1868       H  0.98035315  0.90557526  0.76072621     0.16700
C1869       C  0.87856704  0.79034195  0.77359643    -0.09800
C1870       C  0.87686642  0.76574658  0.78396790    -0.11300
C1871       C  0.82212112  0.84068784  0.72722593    -0.09800
C1872       C  0.79790413  0.83785298  0.71632958    -0.11300
C1873       C  0.95871652  0.75280099  0.88513520    -0.09800
C1874       C  0.98076975  0.77401010  0.89742616    -0.11300
C1875       C  0.53707837  0.87627451  0.94257035    -0.09800
C1876       C  0.53753202  0.90116309  0.95162380    -0.11300
C1877       C  0.60118285  0.81128197  0.92683994    -0.12900
C1878       C  0.63361710  0.83995539  0.92853158    -0.28100
H1879       H  0.59826059  0.78509307  0.92457713     0.16100
H1880       H  0.63691669  0.86646840  0.92915552     0.16700
C1881       C  0.69292178  0.76964679  0.92667247    -0.12900
C1882       C  0.71987269  0.76408022  0.92227107    -0.28100
H1883       H  0.66675775  0.74701221  0.92957262     0.16100
H1884       H  0.74546498  0.78670570  0.91795471     0.16700
C1885       C  0.77680479  0.67650458  0.88058888    -0.09800
C1886       C  0.75767136  0.68217498  0.89205968    -0.11300
C1887       C  0.65686690  0.63420522  0.94290814    -0.09800
C1888       C  0.63410816  0.60860520  0.95268970    -0.11300
C1889       C  0.79331173  0.90729033  0.92141084    -0.12900
C1890       C  0.76066931  0.90262043  0.92068390    -0.28100
H1891       H  0.79672806  0.88457767  0.92479192     0.16100
H1892       H  0.75746366  0.92576840  0.91891295     0.16700
C1893       C  0.85364765  0.53154419  0.88743400    -0.09800
C1894       C  0.85471312  0.55637677  0.87755339    -0.11300
C1895       C  0.91536037  0.99114809  0.94487795    -0.09800
C1896       C  0.93978972  0.99507439  0.95604179    -0.11300
C1897       C  0.77615575  0.58807335  0.09210017    -0.12900
C1898       C  0.80890564  0.59443765  0.09647484    -0.28100
H1899       H  0.77213953  0.61051372  0.08910456     0.16100
H1900       H  0.81383423  0.57237902  0.09809152     0.16700
C1901       C  0.71391569  0.93420217  0.11298791    -0.09800
C1902       C  0.71600943  0.95837177  0.10194054    -0.11300
C1903       C  0.66182824  0.00781635  0.05290559    -0.09800
C1904       C  0.63625979  0.50771086  0.04706346    -0.11300
C1905       C  0.88704865  0.75826847  0.09516144    -0.12900
C1906       C  0.85961896  0.72488787  0.09784246    -0.28100
H1907       H  0.91338303  0.76217036  0.09301035     0.16100
H1908       H  0.83287024  0.72014594  0.09866330     0.16700
C1909       C  0.82362428  0.82452275  0.11131895    -0.09800
C1910       C  0.79999505  0.82622858  0.12039153    -0.11300
C1911       C  0.95462347  0.90577702  0.05606978    -0.09800
C1912       C  0.93324388  0.88142065  0.06735507    -0.11300
C1913       C  0.93757406  0.67415206  0.09860833    -0.12900
C1914       C  0.94406111  0.64751746  0.09459807    -0.28100
H1915       H  0.95929896  0.70129806  0.10019279     0.16100
H1916       H  0.92204388  0.62090014  0.09161059     0.16700
C1917       C  0.57794849  0.71792557  0.11044614    -0.09800
C1918       C  0.60295106  0.74083018  0.12023608    -0.11300
C1919       C  0.52840027  0.61525427  0.06046148    -0.09800
C1920       C  0.53112774  0.59453855  0.04860816    -0.11300
loop_ 
_geom_bond_atom_site_label_1 
_geom_bond_atom_site_label_2 
_geom_bond_distance 
_geom_bond_site_symmetry_2 
_ccdc_geom_bond_type 
C1            C2   1.401       .  A
C1            C6   1.403       .  A
C1          C477   1.441       .  S
C2            C3   1.399       .  A
C2            H7   1.085       .  S
C3            C4   1.399   1_455  A
C3          C479   1.440       .  S
C4          C965   1.404       .  A
C4          H968   1.085       .  S
C5          C964   1.401       .  A
C5          C966   1.414       .  A
C5          C474   1.488       .  S
C6          C965   1.409   1_455  A
C6            H9   1.083       .  S
H8          C964   1.085       .  S
C10          C11   1.400       .  A
C10          C15   1.401       .  A
C10         C472   1.439       .  S
C11          C12   1.400       .  A
C11          H16   1.085       .  S
C12          C13   1.399       .  A
C12         C469   1.436       .  S
C13          C14   1.401       .  A
C13          H17   1.085       .  S
C14          C15   1.408       .  A
C14         C465   1.481       .  S
C15          H18   1.083       .  S
C19          C20   1.398       .  A
C19         C504   1.401       .  A
C19         C463   1.439       .  S
C20          C21   1.398       .  A
C20          H25   1.085       .  S
C21         C502   1.401       .  A
C21         C462   1.438       .  S
C22          C23   1.407       .  A
C22         C501   1.403   1_545  A
C22          H26   1.084       .  S
C23          C24   1.415       .  A
C23         C457   1.495       .  S
C24         C499   1.406       .  A
C24          H27   1.082       .  S
C28         C458   1.483       .  S
C28          N29   1.368       .  A
C28          N33   1.360       .  A
N29          C30   1.366       .  A
C30         C473   1.476       .  S
C30          N31   1.353       .  A
N31          C32   1.350       .  A
C32         C466   1.471       .  S
C32          N33   1.357       .  A
C34          C39   1.399   1_565  A
C34         C515   1.401       .  A
C34         C935   1.436       .  S
C35          C36   1.402       .  A
C35         C514   1.401       .  A
C35          H40   1.085       .  S
C36          C37   1.413       .  A
C36         C449   1.488       .  S
C37         C518   1.403       .  A
C37          H41   1.083       .  S
C38          C39   1.399       .  A
C38         C517   1.403   1_545  A
C38         C453   1.444       .  S
C39          H42   1.085       .  S
C43          C44   1.398       .  A
C43          C48   1.405       .  A
C43         C447   1.445       .  S
C44          C45   1.398       .  A
C44          H49   1.085       .  S
C45          C46   1.403       .  A
C45         C446   1.440       .  S
C46          C47   1.406       .  A
C46          H50   1.084       .  S
C47          C48   1.414       .  A
C47         C442   1.494       .  S
C48          H51   1.082       .  S
C52         C450   1.475       .  S
C52          N53   1.353       .  A
C52          N57   1.366       .  A
N53          C54   1.349       .  A
C54         C438   1.470       .  S
C54          N55   1.356       .  A
N55          C56   1.360       .  A
C56         C441   1.481       .  S
C56          N57   1.368       .  A
C58          C59   1.400       .  A
C58          C63   1.402       .  A
C58        C1394   1.439   1_455  S
C59          C60   1.401       .  A
C59          H64   1.085       .  S
C60          C61   1.408       .  A
C60         C437   1.482       .  S
C61          C62   1.399       .  A
C61          H65   1.083       .  S
C62          C63   1.402       .  A
C62         C435   1.442       .  S
C63        H1026   1.084   1_455  S
H66        C1023   1.084       .  S
Zn67         O71   1.962   1_554  S
Zn67        O552   2.005       .  S
Zn67        O556   2.012       .  S
Zn67       O1043   2.018   1_455  S
Zn68        O551   1.967   1_556  S
Zn68         O73   2.018       .  S
Zn68         O75   2.013   1_556  S
Zn68       O1039   2.026   1_455  S
Zn69        O551   1.969   1_556  S
Zn69         O74   2.031   1_556  S
Zn69         O77   2.034       .  S
Zn69        O560   2.039   1_545  S
Zn70       O1031   1.955       .  S
Zn70         O81   1.997       .  S
Zn70         O82   2.005   1_556  S
Zn70       O1038   2.004       .  S
O71        Zn548   1.962       .  S
O71        Zn549   1.965       .  S
O71       Zn1030   1.956   1_455  S
O72        Zn547   2.025       .  S
O72          C84   1.273       .  A
O73          C85   1.272       .  A
O74          C86   1.273       .  A
O75          C84   1.272       .  A
O76        Zn547   2.034       .  S
O76          C86   1.274       .  A
O77          C85   1.274       .  A
O78       Zn1030   2.008   1_455  S
O78          C87   1.271       .  A
O79       Zn1028   2.018       .  S
O79         C568   1.272   1_545  A
O80        Zn549   2.036       .  S
O80          C87   1.275       .  A
O81          C88   1.269       .  A
O82          C89   1.270       .  A
O83       Zn1027   2.025       .  S
O83          C89   1.272       .  A
C84         C480   1.435       .  S
C85         C448   1.440       .  S
C86         C464   1.443       .  S
C87         C436   1.437       .  S
C88         C456   1.431       .  S
C88         O559   1.272       .  A
C89         C471   1.434       .  S
C90          C91   1.402       .  A
C90          C95   1.404       .  A
C90         C431   1.444       .  S
C91          C92   1.401       .  A
C91          H96   1.084       .  S
C92          C93   1.400       .  A
C92         C429   1.442       .  S
C93          C94   1.403       .  A
C93          H97   1.085       .  S
C94          C95   1.410       .  A
C94         C425   1.486       .  S
C95          H98   1.083       .  S
C99         C104   1.402       .  A
C99         C580   1.400   1_545  A
C99         C422   1.439       .  S
C100        C101   1.399       .  A
C100        C579   1.398       .  A
C100        H105   1.085       .  S
C101        C102   1.403       .  A
C101        C423   1.439       .  S
C102        C103   1.409       .  A
C102        H106   1.083       .  S
C103        C584   1.404       .  A
C103        C418   1.483       .  S
C104        C583   1.409   1_545  A
C104        H107   1.083       .  S
C108        C109   1.400       .  A
C108        C113   1.399       .  A
C108        C414   1.438       .  S
C109        C110   1.401       .  A
C109        H114   1.085       .  S
C110        C111   1.402       .  A
C110       C1375   1.440   1_455  S
C111        C112   1.408       .  A
C111       H1075   1.083   1_455  S
C112        C113   1.402       .  A
C112        C410   1.482       .  S
C113        H116   1.085       .  S
H115       C1071   1.085       .  S
C117       C1386   1.478       .  S
C117        N118   1.360   1_655  A
C117        N122   1.358   1_655  A
N118        C119   1.357       .  A
C119        C417   1.478       .  S
C119        N600   1.359       .  A
N120        C121   1.360       .  A
N120        C599   1.357       .  A
C121        C409   1.475       .  S
C121        N602   1.356   1_545  A
N122        C601   1.360       .  A
Zn123       O127   1.961       .  S
Zn123       O128   2.013       .  S
Zn123       O132   2.015       .  S
Zn123       O139   2.018       .  S
Zn124       O127   1.966       .  S
Zn124       O129   2.035       .  S
Zn124       O131   2.021       .  S
Zn124       O135   2.019       .  S
Zn125       O127   1.960       .  S
Zn125       O130   2.017       .  S
Zn125       O133   2.017       .  S
Zn125       O136   2.018       .  S
Zn126       O127   1.963       .  S
Zn126       O134   2.018       .  S
Zn126       O137   2.021       .  S
Zn126       O138   2.024       .  S
O128        C140   1.272       .  A
O129        C141   1.274       .  A
O130        C142   1.272       .  A
O131        C140   1.273       .  A
O132        C142   1.272       .  A
O133        C141   1.271       .  A
O134        C143   1.272       .  A
O135        C144   1.272       .  A
O136        C143   1.272       .  A
O137        C144   1.273       .  A
O138        C145   1.272       .  A
O139        C145   1.271       .  A
C140        C445   1.435       .  S
C141        C454   1.439       .  S
C142        C421   1.434       .  S
C143        C416   1.435       .  S
C144        C433   1.436       .  S
C145        C430   1.437       .  S
C146        C147   1.399       .  A
C146        C151   1.401       .  A
C146        C407   1.442       .  S
C147        C148   1.400       .  A
C147        H152   1.085       .  S
C148        C149   1.403       .  A
C148        C405   1.441       .  S
C149        C150   1.409       .  A
C149        H153   1.083       .  S
C150        C151   1.406       .  A
C150        C401   1.487       .  S
C151        H154   1.084       .  S
C155        C156   1.400   1_455  A
C155        C160   1.399       .  A
C155        C399   1.439       .  S
C156       C1117   1.404       .  A
C156       H1121   1.085       .  S
C157       C1116   1.403       .  A
C157       C1118   1.410       .  A
C157        C393   1.485       .  S
C158        C159   1.403       .  A
C158       C1117   1.409   1_455  A
C158        H162   1.083       .  S
C159        C160   1.400       .  A
C159        C397   1.440       .  S
C160        H163   1.085       .  S
H161       C1116   1.085       .  S
C164        C169   1.400       .  A
C164        C645   1.402       .  A
C164        C389   1.439       .  S
C165        C166   1.407       .  A
C165        C644   1.401   1_545  A
C165        H170   1.083       .  S
C166        C167   1.405       .  A
C166        C385   1.484       .  S
C167        C648   1.401       .  A
C167        H171   1.084       .  S
C168        C169   1.399       .  A
C168        C647   1.400       .  A
C168        C391   1.440       .  S
C169        H172   1.085       .  S
C173        C394   1.477       .  S
C173        N174   1.356       .  A
C173        N178   1.361       .  A
N174        C175   1.358       .  A
C175        C386   1.476       .  S
C175        N176   1.358       .  A
N176        C177   1.360       .  A
C177        C402   1.480       .  S
C177        N178   1.359       .  A
Zn179       O183   1.961       .  S
Zn179       O184   2.014       .  S
Zn179       O188   2.017       .  S
Zn179       O195   2.018       .  S
Zn180       O183   1.969       .  S
Zn180       O185   2.023       .  S
Zn180       O187   2.034       .  S
Zn180       O191   2.017       .  S
Zn181       O183   1.962       .  S
Zn181       O186   2.016       .  S
Zn181       O189   2.010       .  S
Zn181       O192   2.016       .  S
Zn182       O183   1.964       .  S
Zn182       O190   2.020       .  S
Zn182       O193   2.015       .  S
Zn182       O194   2.021       .  S
O184        C196   1.271       .  A
O185        C197   1.272       .  A
O186        C198   1.272       .  A
O187        C196   1.274       .  A
O188        C198   1.272       .  A
O189        C197   1.271       .  A
O190        C199   1.272       .  A
O191        C200   1.272       .  A
O192        C199   1.271       .  A
O193        C200   1.272       .  A
O194        C201   1.272       .  A
O195        C201   1.272       .  A
C196        C432   1.439       .  S
C197        C424   1.434       .  S
C198        C390   1.434       .  S
C199        C398   1.435       .  S
C200        C413   1.434       .  S
C201        C406   1.436       .  S
C202        C203   1.399       .  A
C202        C207   1.400       .  A
C202        C383   1.440       .  S
C203        C204   1.400       .  A
C203        H208   1.085       .  S
C204        C205   1.404       .  A
C204        C381   1.442       .  S
C205        C206   1.410       .  A
C205        H209   1.083       .  S
C206        C207   1.404       .  A
C206        C378   1.486       .  S
C207        H210   1.085       .  S
C211        C212   1.401       .  A
C211        C216   1.400       .  A
C211        C376   1.443       .  S
C212        C213   1.405       .  A
C212        H217   1.085       .  S
C213        C214   1.409       .  A
C213        C369   1.487       .  S
C214        C215   1.403       .  A
C214        H218   1.083       .  S
C215        C216   1.401       .  A
C215       C1334   1.443   1_455  S
C216       H1179   1.085   1_455  S
H219       C1176   1.085       .  S
C220        C221   1.401       .  A
C220        C705   1.403   1_545  A
C220        C366   1.440       .  S
C221        C222   1.399   1_545  A
C221        H226   1.085       .  S
C222        C703   1.399       .  A
C222        C847   1.439       .  S
C223        C224   1.404       .  A
C223        C702   1.400       .  A
C223        H227   1.085       .  S
C224        C225   1.410       .  A
C224        C362   1.487       .  S
C225        C700   1.404       .  A
C225        H228   1.083       .  S
C229        C370   1.480       .  S
C229        N230   1.360       .  A
C229        N234   1.358       .  A
N230        C231   1.358       .  A
C231        C377   1.479       .  S
C231        N232   1.360       .  A
N232        C233   1.358       .  A
C233        C361   1.480       .  S
C233        N234   1.361       .  A
Zn235       O719   1.965   1_545  S
Zn235       O240   2.017       .  S
Zn235       O244   2.020       .  S
Zn235       O251   2.020       .  S
Zn236       O239   1.966       .  S
Zn236       O241   2.020       .  S
Zn236       O243   2.025       .  S
Zn236      O1207   2.026   1_455  S
Zn237       O239   1.965       .  S
Zn237       O245   2.015       .  S
Zn237       O722   2.017       .  S
Zn237      O1688   2.023   1_455  S
Zn238      O1679   1.964       .  S
Zn238       O246   2.019       .  S
Zn238       O729   2.011   1_545  S
Zn238      O1210   2.017       .  S
O239       Zn715   1.964       .  S
O239      Zn1678   1.964   1_455  S
O240        C732   1.272   1_545  A
O241        C253   1.272       .  A
O242       Zn717   2.020   1_545  S
O242        C254   1.272       .  A
O243        C252   1.273       .  A
O244        C254   1.272       .  A
O245        C253   1.272       .  A
O246        C255   1.272       .  A
O247      Zn1196   2.023       .  S
O247        C256   1.273       .  A
O248      Zn1677   2.026       .  S
O248        C255   1.272       .  A
O249       Zn718   2.014       .  S
O249        C256   1.272       .  A
O250      Zn1198   2.027   1_455  S
O250        C257   1.273       .  A
O251        C257   1.272       .  A
C252        C368   1.439       .  S
C252        O720   1.272       .  A
C253        C400   1.434       .  S
C254        C408   1.437       .  S
C255        C392   1.438       .  S
C256        C384   1.435       .  S
C257        C375   1.438       .  S
C258        C259   1.399       .  A
C258        C263   1.400       .  A
C258        C358   1.439       .  S
C259        C260   1.402       .  A
C259        H264   1.085       .  S
C260        C741   1.409       .  A
C260        C354   1.484       .  S
C261        C262   1.402       .  A
C261        C740   1.409   1_545  A
C261        H265   1.083       .  S
C262        C743   1.401   1_545  A
C262        C360   1.440       .  S
C263        C742   1.402       .  A
C263        H266   1.084       .  S
C267        C268   1.398       .  A
C267        C272   1.400       .  A
C267        C350   1.440       .  S
C268        C269   1.403       .  A
C268        H273   1.085       .  S
C269        C270   1.408       .  A
C269        C345   1.482       .  S
C270        C271   1.403       .  A
C270        H274   1.083       .  S
C271        C272   1.402       .  A
C271        C351   1.441       .  S
C272        H275   1.085       .  S
C276        C277   1.397       .  A
C276        C281   1.404       .  A
C276       C1301   1.441   1_455  S
C277        C278   1.397       .  A
C277        H282   1.085       .  S
C278        C279   1.399       .  A
C278        C344   1.435       .  S
C279        C280   1.403       .  A
C279        H283   1.085       .  S
C280        C281   1.412       .  A
C280        C337   1.487       .  S
C281       H1244   1.083       .  S
H284       C1241   1.083       .  S
C285        C346   1.478       .  S
C285        N290   1.358       .  A
C285        N766   1.358   1_545  A
N286        C287   1.365       .  A
N286        C765   1.363       .  A
C287        C338   1.477       .  S
C287        N288   1.358   1_455  A
N288        C289   1.357   1_655  A
C289       C1313   1.471   1_455  S
C289        N770   1.352       .  A
N290        C769   1.355       .  A
Zn291       O295   1.961       .  S
Zn291       O296   2.017       .  S
Zn291       O300   2.007       .  S
Zn291       O307   2.009       .  S
Zn292       O295   1.963       .  S
Zn292       O297   2.009       .  S
Zn292       O299   2.014       .  S
Zn292       O303   2.017       .  S
Zn293       O295   1.963       .  S
Zn293       O298   2.019       .  S
Zn293       O301   2.010       .  S
Zn293       O304   2.022       .  S
Zn294       O295   1.959       .  S
Zn294       O302   2.019       .  S
Zn294       O305   2.017       .  S
Zn294       O306   2.013       .  S
O296        C308   1.271       .  A
O297        C309   1.271       .  A
O298        C310   1.272       .  A
O299        C308   1.271       .  A
O300        C310   1.270       .  A
O301        C309   1.271       .  A
O302        C311   1.272       .  A
O303        C312   1.272       .  A
O304        C311   1.272       .  A
O305        C312   1.272       .  A
O306        C313   1.272       .  A
O307        C313   1.271       .  A
C308        C357   1.434       .  S
C309        C343   1.430       .  S
C310        C461   1.433       .  S
C311        C478   1.437       .  S
C312        C349   1.435       .  S
C313        C470   1.431       .  S
Zn314       O318   1.964       .  S
Zn314       O319   2.011       .  S
Zn314       O323   2.028       .  S
Zn314       O330   2.023       .  S
Zn315       O318   1.971       .  S
Zn315       O320   2.024       .  S
Zn315       O322   2.022       .  S
Zn315       O326   2.023       .  S
Zn316       O318   1.963       .  S
Zn316       O321   2.027       .  S
Zn316       O324   2.013       .  S
Zn316       O327   2.020       .  S
Zn317       O318   1.964       .  S
Zn317       O325   2.018       .  S
Zn317       O328   2.017       .  S
Zn317       O329   2.020       .  S
O319        C331   1.271       .  A
O320        C332   1.273       .  A
O321        C333   1.273       .  A
O322        C331   1.272       .  A
O323        C333   1.273       .  A
O324        C332   1.271       .  A
O325        C334   1.272       .  A
O326        C335   1.272       .  A
O327        C334   1.272       .  A
O328        C335   1.271       .  A
O329        C336   1.272       .  A
O330        C336   1.273       .  A
C331        C342   1.434       .  S
C332        C359   1.435       .  S
C333        C373   1.441       .  S
C334        C365   1.436       .  S
C335        C352   1.436       .  S
C336        C382   1.437       .  S
C337        C338   1.343       .  D
C337        H339   1.087       .  S
C338        H340   1.085   1_455  S
C341       C1236   1.439       .  S
C341        C342   1.205       .  T
C343        C344   1.203       .  T
C345        C346   1.346       .  D
C345        H347   1.087       .  S
C346        H348   1.085       .  S
C349        C350   1.206       .  T
C351        C352   1.207       .  T
C353       C1249   1.477       .  S
C353        C354   1.344       .  D
C353        H355   1.085       .  S
C354        H836   1.087       .  S
H356        C834   1.087       .  S
C357        C358   1.205       .  T
C359        C360   1.206       .  T
C361        C362   1.346       .  D
C361        H363   1.085       .  S
C362        H364   1.087       .  S
C365        C366   1.206       .  T
C367        C702   1.443       .  S
C367        C368   1.208       .  T
C369        C370   1.347       .  D
C369        H371   1.087       .  S
C370        H372   1.085       .  S
C373        C374   1.209       .  T
C374       C1175   1.445       .  S
C375        C376   1.208       .  T
C377        C378   1.345       .  D
C377        H379   1.086       .  S
C378        H380   1.087       .  S
C381        C382   1.207       .  T
C383        C384   1.206       .  T
C385        C386   1.347       .  D
C385        H387   1.087       .  S
C386        H388   1.085       .  S
C389        C390   1.206       .  T
C391        C872   1.206       .  T
C392        C871   1.208       .  T
C393        C394   1.344       .  D
C393        H395   1.087       .  S
C394        H396   1.085       .  S
C397        C398   1.206       .  T
C399        C400   1.206       .  T
C401        C402   1.347       .  D
C401        H403   1.087       .  S
C402        H404   1.085       .  S
C405        C406   1.206       .  T
C407        C408   1.207       .  T
C409        C410   1.344       .  D
C409        H411   1.085   1_455  S
C410        H412   1.087       .  S
C413        C414   1.205       .  T
C415       C1070   1.439       .  S
C415        C416   1.206       .  T
C417        C418   1.345       .  D
C417        H419   1.086       .  S
C418        H420   1.087       .  S
C421        C422   1.205       .  T
C423        C424   1.205       .  T
C425        C426   1.345       .  D
C425        H427   1.087       .  S
C426       C1077   1.479       .  S
C426        H428   1.085       .  S
C429        C430   1.207       .  T
C431        C432   1.208       .  T
C433        C434   1.206       .  T
C434       C1018   1.440       .  S
C435        C436   1.207       .  T
C437        C438   1.342       .  D
C437        H439   1.087       .  S
C438        H440   1.085       .  S
C441        C442   1.345       .  D
C441        H443   1.085       .  S
C442        H444   1.087       .  S
C445        C446   1.206       .  T
C447        C448   1.209       .  T
C449        C450   1.340       .  D
C449        H451   1.086       .  S
C450        H452   1.086       .  S
C453        C454   1.208       .  T
C455        C514   1.436       .  S
C455        C456   1.203       .  T
C457        C458   1.346       .  D
C457        H459   1.087       .  S
C458        H460   1.085       .  S
C461        C462   1.205       .  T
C463        C944   1.205       .  T
C464        C943   1.211       .  T
C465        C466   1.341       .  D
C465        H467   1.087       .  S
C466        H468   1.086       .  S
C469        C470   1.203       .  T
C471        C472   1.206       .  T
C473        C474   1.340       .  D
C473        H475   1.086       .  S
C474        H476   1.087       .  S
C477        C478   1.207       .  T
C479        C480   1.206       .  T
C481        C482   1.398       .  A
C481        C486   1.403       .  A
C481        C957   1.439       .  S
C482        C483   1.397       .  A
C482        H487   1.085       .  S
C483        C484   1.399   1_455  A
C483        C959   1.436       .  S
C484       C1445   1.403       .  A
C484       H1448   1.085       .  S
C485       C1444   1.404       .  A
C485       C1446   1.410       .  A
C485        C954   1.486       .  S
C486       C1445   1.410   1_455  A
C486        H489   1.083       .  S
H488       C1444   1.085       .  S
C490        C491   1.400       .  A
C490        C495   1.399       .  A
C490        C952   1.438       .  S
C491        C492   1.401       .  A
C491        H496   1.085       .  S
C492        C493   1.402       .  A
C492        C949   1.440       .  S
C493        C494   1.408       .  A
C493        H497   1.083       .  S
C494        C495   1.402       .  A
C494        C945   1.482       .  S
C495        H498   1.085       .  S
C499        C500   1.401   1_545  A
C499        C943   1.448       .  S
C500        C501   1.400       .  A
C500        H505   1.085       .  S
C501        C942   1.445       .  S
C502        C503   1.408       .  A
C502        H506   1.083       .  S
C503        C504   1.406       .  A
C503        C937   1.485       .  S
C504        H507   1.084       .  S
C508        C938   1.478       .  S
C508        N509   1.359       .  A
C508        N513   1.358       .  A
N509        C510   1.361       .  A
C510        C953   1.479       .  S
C510        N511   1.358       .  A
N511        C512   1.360       .  A
C512        C946   1.475       .  S
C512        N513   1.356       .  A
C514        C519   1.398       .  A
C515        C516   1.402       .  A
C515        H520   1.085       .  S
C516        C517   1.413       .  A
C516        C929   1.488       .  S
C517        H521   1.083       .  S
C518        C519   1.398       .  A
C518        C933   1.442       .  S
C519        H522   1.085       .  S
C523        C524   1.397       .  A
C523        C528   1.405       .  A
C523        C927   1.443       .  S
C524        C525   1.397       .  A
C524        H529   1.085       .  S
C525        C526   1.402       .  A
C525        C926   1.439       .  S
C526        C527   1.406       .  A
C526        H530   1.084       .  S
C527        C528   1.414       .  A
C527        C922   1.493       .  S
C528        H531   1.082       .  S
C532        C930   1.475       .  S
C532        N533   1.353       .  A
C532        N537   1.365       .  A
N533        C534   1.351       .  A
C534        C918   1.471       .  S
C534        N535   1.357       .  A
N535        C536   1.359       .  A
C536        C921   1.481       .  S
C536        N537   1.367       .  A
C538        C539   1.399       .  A
C538        C543   1.404       .  A
C538       C1874   1.441   1_455  S
C539        C540   1.400       .  A
C539        H544   1.085       .  S
C540        C541   1.407       .  A
C540        C917   1.481       .  S
C541        C542   1.400       .  A
C541        H545   1.083       .  S
C542        C543   1.404       .  A
C542        C915   1.443       .  S
C543       H1506   1.084   1_455  S
H546       C1503   1.084       .  S
Zn547       O551   1.971       .  S
Zn547      O1523   2.033   1_545  S
Zn548       O553   2.012       .  S
Zn548       O555   2.015   1_556  S
Zn548      O1519   2.018   1_455  S
Zn549       O554   2.023   1_556  S
Zn549       O557   2.035       .  S
Zn550      O1511   1.955   1_565  S
Zn550      O1518   2.004       .  S
Zn550       O561   2.004       .  S
Zn550       O562   2.014   1_556  S
O551      Zn1510   1.962   1_444  S
O552        C564   1.270       .  A
O553        C565   1.271       .  A
O554        C566   1.273       .  A
O555        C564   1.272       .  A
O556        C566   1.271       .  A
O557        C565   1.275       .  A
O558      Zn1510   2.010   1_455  S
O558        C567   1.271       .  A
O559      Zn1508   2.023       .  S
O560        C567   1.275       .  A
O561        C568   1.270       .  A
O562        C569   1.271       .  A
O563      Zn1507   2.012   1_565  S
O563        C569   1.270       .  A
C564        C960   1.431       .  S
C565        C928   1.438       .  S
C566        C944   1.434       .  S
C567        C916   1.439       .  S
C568        C936   1.431       .  S
C569        C951   1.433       .  S
C570        C571   1.401       .  A
C570        C575   1.403       .  A
C570        C911   1.441       .  S
C571        C572   1.400       .  A
C571        H576   1.085       .  S
C572        C573   1.398       .  A
C572        C909   1.438       .  S
C573        C574   1.402       .  A
C573        H577   1.085       .  S
C574        C575   1.409       .  A
C574        C905   1.482       .  S
C575        H578   1.083       .  S
C579        C584   1.399       .  A
C579        C902   1.438       .  S
C580        C581   1.399       .  A
C580        H585   1.085       .  S
C581        C582   1.400       .  A
C581        C903   1.439       .  S
C582        C583   1.404       .  A
C582        H586   1.085       .  S
C583        C898   1.484       .  S
C584        H587   1.085       .  S
C588        C589   1.401       .  A
C588        C593   1.403       .  A
C588        C894   1.442       .  S
C589        C590   1.400       .  A
C589        H594   1.085       .  S
C590        C591   1.400       .  A
C590       C1855   1.440   1_455  S
C591        C592   1.403       .  A
C591       H1555   1.085   1_455  S
C592        C593   1.409       .  A
C592        C890   1.485       .  S
C593        H596   1.083       .  S
H595       C1551   1.084       .  S
C597       C1866   1.475   1_455  S
C597        N598   1.357       .  A
C597        N602   1.359       .  A
N598        C599   1.359   1_565  A
C599        C897   1.477       .  S
N600        C601   1.357       .  A
C601        C889   1.477       .  S
Zn603       O607   1.960       .  S
Zn603       O608   2.010       .  S
Zn603       O612   2.011       .  S
Zn603       O619   2.008       .  S
Zn604       O607   1.965       .  S
Zn604       O609   2.027       .  S
Zn604       O611   2.021       .  S
Zn604       O615   2.016       .  S
Zn605       O607   1.961       .  S
Zn605       O610   2.017       .  S
Zn605       O613   2.016       .  S
Zn605       O616   2.018       .  S
Zn606       O607   1.964       .  S
Zn606       O614   2.019       .  S
Zn606       O617   2.019       .  S
Zn606       O618   2.021       .  S
O608        C620   1.271       .  A
O609        C621   1.273       .  A
O610        C622   1.272       .  A
O611        C620   1.272       .  A
O612        C622   1.271       .  A
O613        C621   1.272       .  A
O614        C623   1.272       .  A
O615        C624   1.272       .  A
O616        C623   1.272       .  A
O617        C624   1.272       .  A
O618        C625   1.272       .  A
O619        C625   1.270       .  A
C620        C925   1.434       .  S
C621        C934   1.437       .  S
C622        C901   1.433       .  S
C623        C896   1.435       .  S
C624        C913   1.435       .  S
C625        C910   1.433       .  S
C626        C627   1.398       .  A
C626        C631   1.400       .  A
C626        C887   1.439       .  S
C627        C628   1.400       .  A
C627        H632   1.085       .  S
C628        C629   1.404       .  A
C628        C885   1.440       .  S
C629        C630   1.409       .  A
C629        H633   1.083       .  S
C630        C631   1.404       .  A
C630        C881   1.485       .  S
C631        H634   1.084       .  S
C635        C636   1.399   1_455  A
C635        C640   1.401       .  A
C635        C879   1.441       .  S
C636       C1597   1.403       .  A
C636       H1601   1.085       .  S
C637       C1596   1.404       .  A
C637       C1598   1.409       .  A
C637        C873   1.486       .  S
C638       C1597   1.410   1_455  A
C638        C639   1.405       .  A
C638        H642   1.083       .  S
C639        C640   1.402       .  A
C639        C877   1.445       .  S
C640        H643   1.085       .  S
H641       C1596   1.085       .  S
C644        C649   1.402       .  A
C644        C869   1.442       .  S
C645        C646   1.408       .  A
C645        H650   1.083       .  S
C646        C647   1.404       .  A
C646        C865   1.484       .  S
C647        H651   1.084       .  S
C648        C649   1.402   1_545  A
C648        C871   1.443       .  S
C649        H652   1.084       .  S
C653        C874   1.477       .  S
C653        N654   1.356       .  A
C653        N658   1.360       .  A
N654        C655   1.359       .  A
C655        C866   1.478       .  S
C655        N656   1.357       .  A
N656        C657   1.361       .  A
C657        C882   1.479       .  S
C657        N658   1.359       .  A
Zn659       O663   1.961       .  S
Zn659       O664   2.012       .  S
Zn659       O668   2.011       .  S
Zn659       O675   2.011       .  S
Zn660       O663   1.971       .  S
Zn660       O665   2.017       .  S
Zn660       O667   2.027       .  S
Zn660       O671   2.026       .  S
Zn661       O663   1.967       .  S
Zn661       O666   2.032       .  S
Zn661       O669   2.018       .  S
Zn661       O672   2.031       .  S
Zn662       O663   1.964       .  S
Zn662       O670   2.024       .  S
Zn662       O673   2.015       .  S
Zn662       O674   2.023       .  S
O664        C676   1.271       .  A
O665        C677   1.272       .  A
O666        C678   1.274       .  A
O667        C676   1.273       .  A
O668        C678   1.271       .  A
O669        C677   1.272       .  A
O670        C679   1.272       .  A
O671        C680   1.273       .  A
O672        C679   1.274       .  A
O673        C680   1.271       .  A
O674        C681   1.273       .  A
O675        C681   1.271       .  A
C676        C912   1.437       .  S
C677        C904   1.434       .  S
C678        C870   1.437       .  S
C679        C878   1.440       .  S
C680        C893   1.437       .  S
C681        C886   1.435       .  S
C682        C683   1.398       .  A
C682        C687   1.401       .  A
C682        C863   1.441       .  S
C683        C684   1.400       .  A
C683        H688   1.085       .  S
C684        C685   1.404       .  A
C684        C861   1.441       .  S
C685        C686   1.410       .  A
C685        H689   1.083       .  S
C686        C687   1.406       .  A
C686        C858   1.487       .  S
C687        H690   1.084       .  S
C691        C692   1.398       .  A
C691        C696   1.400       .  A
C691        C856   1.439       .  S
C692        C693   1.401       .  A
C692        H697   1.085       .  S
C693        C694   1.411       .  A
C693        C849   1.485       .  S
C694        C695   1.405       .  A
C694        H698   1.083       .  S
C695        C696   1.402       .  A
C695       C1814   1.444   1_455  S
C696       H1659   1.085   1_455  S
H699       C1656   1.084       .  S
C700        C701   1.403       .  A
C700        C846   1.445       .  S
C701        C702   1.402       .  A
C701        H706   1.084       .  S
C703        C704   1.403       .  A
C703        H707   1.085       .  S
C704        C705   1.409       .  A
C704        C842   1.483       .  S
C705        H708   1.083       .  S
C709        C850   1.478       .  S
C709        N710   1.362       .  A
C709        N714   1.356       .  A
N710        C711   1.360       .  A
C711        C857   1.481       .  S
C711        N712   1.360       .  A
N712        C713   1.357       .  A
C713        C841   1.477       .  S
C713        N714   1.358       .  A
Zn715       O720   2.023       .  S
Zn715       O724   2.019       .  S
Zn715       O731   2.016       .  S
Zn716       O719   1.967       .  S
Zn716       O721   2.027       .  S
Zn716       O723   2.017       .  S
Zn716      O1687   2.025   1_455  S
Zn717       O719   1.965       .  S
Zn717       O725   2.014       .  S
Zn717      O1208   2.017   1_465  S
Zn718      O1199   1.964       .  S
Zn718       O726   2.016       .  S
Zn718      O1690   2.021       .  S
O719      Zn1198   1.966   1_465  S
O721        C733   1.273       .  A
O722        C734   1.272       .  A
O723        C732   1.272       .  A
O724        C734   1.272       .  A
O725        C733   1.271       .  A
O726        C735   1.272       .  A
O727      Zn1676   2.026       .  S
O727        C736   1.273       .  A
O728      Zn1197   2.019       .  S
O728        C735   1.272       .  A
O729        C736   1.271       .  A
O730      Zn1678   2.016   1_455  S
O730        C737   1.271       .  A
O731        C737   1.272       .  A
C732        C848   1.434       .  S
C733        C880   1.437       .  S
C734        C888   1.435       .  S
C735        C872   1.435       .  S
C736        C864   1.436       .  S
C737        C855   1.434       .  S
C738        C739   1.398       .  A
C738        C743   1.400       .  A
C738        C838   1.436       .  S
C739        C740   1.401       .  A
C739        H744   1.085       .  S
C740        C834   1.482       .  S
C741        C742   1.403       .  A
C741        H745   1.083       .  S
C742        C840   1.442       .  S
C743        H746   1.084       .  S
C747        C748   1.401       .  A
C747        C752   1.399       .  A
C747        C830   1.442       .  S
C748        C749   1.411       .  A
C748        H753   1.083       .  S
C749        C750   1.403       .  A
C749        C825   1.488       .  S
C750        C751   1.402       .  A
C750        H754   1.085       .  S
C751        C752   1.400       .  A
C751        C831   1.438       .  S
C752        H755   1.085       .  S
C756        C757   1.400       .  A
C756        C761   1.404       .  A
C756       C1781   1.441   1_455  S
C757        C758   1.398       .  A
C757        H762   1.085       .  S
C758        C759   1.399       .  A
C758        C824   1.438       .  S
C759        C760   1.403       .  A
C759        H763   1.085       .  S
C760        C761   1.410       .  A
C760        C817   1.485       .  S
C761       H1724   1.083   1_455  S
H764       C1721   1.082       .  S
C765        C826   1.474       .  S
C765        N770   1.354       .  A
N766        C767   1.361       .  A
C767        C818   1.478       .  S
C767        N768   1.358       .  A
N768        C769   1.360   1_565  A
C769       C1793   1.476   1_455  S
Zn771       O775   1.958       .  S
Zn771       O776   2.009       .  S
Zn771       O780   2.020       .  S
Zn771       O787   2.013       .  S
Zn772       O775   1.967       .  S
Zn772       O777   2.014       .  S
Zn772       O779   2.014       .  S
Zn772       O783   2.026       .  S
Zn773       O775   1.962       .  S
Zn773       O778   2.030       .  S
Zn773       O781   2.014       .  S
Zn773       O784   2.012       .  S
Zn774       O775   1.962       .  S
Zn774       O782   2.022       .  S
Zn774       O785   2.019       .  S
Zn774       O786   2.022       .  S
O776        C788   1.271       .  A
O777        C789   1.272       .  A
O778        C790   1.273       .  A
O779        C788   1.271       .  A
O780        C790   1.272       .  A
O781        C789   1.272       .  A
O782        C791   1.273       .  A
O783        C792   1.272       .  A
O784        C791   1.272       .  A
O785        C792   1.271       .  A
O786        C793   1.273       .  A
O787        C793   1.272       .  A
C788        C837   1.431       .  S
C789        C823   1.433       .  S
C790        C941   1.440       .  S
C791        C958   1.434       .  S
C792        C829   1.438       .  S
C793        C950   1.435       .  S
Zn794       O798   1.967       .  S
Zn794       O799   2.027       .  S
Zn794       O803   2.028       .  S
Zn794       O810   2.027       .  S
Zn795       O798   1.972       .  S
Zn795       O800   2.027       .  S
Zn795       O802   2.035       .  S
Zn795       O806   2.022       .  S
Zn796       O798   1.965       .  S
Zn796       O801   2.016       .  S
Zn796       O804   2.017       .  S
Zn796       O807   2.029       .  S
Zn797       O798   1.963       .  S
Zn797       O805   2.020       .  S
Zn797       O808   2.009       .  S
Zn797       O809   2.015       .  S
O799        C811   1.273       .  A
O800        C812   1.273       .  A
O801        C813   1.272       .  A
O802        C811   1.274       .  A
O803        C813   1.274       .  A
O804        C812   1.272       .  A
O805        C814   1.271       .  A
O806        C815   1.272       .  A
O807        C814   1.273       .  A
O808        C815   1.271       .  A
O809        C816   1.271       .  A
O810        C816   1.273       .  A
C811        C822   1.442       .  S
C812        C839   1.437       .  S
C813        C853   1.437       .  S
C814        C845   1.440       .  S
C815        C832   1.433       .  S
C816        C862   1.437       .  S
C817        C818   1.345       .  D
C817        H819   1.087       .  S
C818        H820   1.085   1_455  S
C821       C1716   1.447       .  S
C821        C822   1.210       .  T
C823        C824   1.205       .  T
C825        C826   1.343       .  D
C825        H827   1.087       .  S
C826        H828   1.086       .  S
C829        C830   1.207       .  T
C831        C832   1.205       .  T
C833       C1729   1.474       .  S
C833        C834   1.342   1_545  D
C833        H835   1.086       .  S
C837        C838   1.204       .  T
C839        C840   1.207       .  T
C841        C842   1.345       .  D
C841        H843   1.085       .  S
C842        H844   1.087       .  S
C845        C846   1.209       .  T
C847        C848   1.205       .  T
C849        C850   1.343       .  D
C849        H851   1.087       .  S
C850        H852   1.086       .  S
C853        C854   1.207       .  T
C854       C1655   1.442       .  S
C855        C856   1.205       .  T
C857        C858   1.347       .  D
C857        H859   1.085       .  S
C858        H860   1.087       .  S
C861        C862   1.207       .  T
C863        C864   1.206       .  T
C865        C866   1.346       .  D
C865        H867   1.087       .  S
C866        H868   1.085       .  S
C869        C870   1.207       .  T
C873        C874   1.345       .  D
C873        H875   1.087       .  S
C874        H876   1.085       .  S
C877        C878   1.209       .  T
C879        C880   1.207       .  T
C881        C882   1.346       .  D
C881        H883   1.087       .  S
C882        H884   1.085       .  S
C885        C886   1.206       .  T
C887        C888   1.206       .  T
C889        C890   1.345       .  D
C889        H891   1.085       .  S
C890        H892   1.087   1_455  S
C893        C894   1.207       .  T
C895       C1550   1.440       .  S
C895        C896   1.206       .  T
C897        C898   1.345   1_545  D
C897        H899   1.085       .  S
C898        H900   1.087       .  S
C901        C902   1.204       .  T
C903        C904   1.205       .  T
C905        C906   1.344       .  D
C905        H907   1.087       .  S
C906       C1557   1.476       .  S
C906        H908   1.085       .  S
C909        C910   1.205       .  T
C911        C912   1.207       .  T
C913        C914   1.206       .  T
C914       C1498   1.439       .  S
C915        C916   1.208       .  T
C917        C918   1.342       .  D
C917        H919   1.087       .  S
C918        H920   1.086       .  S
C921        C922   1.345       .  D
C921        H923   1.085       .  S
C922        H924   1.087       .  S
C925        C926   1.205       .  T
C927        C928   1.208       .  T
C929        C930   1.341       .  D
C929        H931   1.087       .  S
C930        H932   1.086       .  S
C933        C934   1.207       .  T
C935        C936   1.204       .  T
C937        C938   1.347       .  D
C937        H939   1.087       .  S
C938        H940   1.085       .  S
C941        C942   1.209       .  T
C945        C946   1.344       .  D
C945        H947   1.087       .  S
C946        H948   1.086       .  S
C949        C950   1.206       .  T
C951        C952   1.205       .  T
C953        C954   1.345       .  D
C953        H955   1.085       .  S
C954        H956   1.087       .  S
C957        C958   1.205       .  T
C959        C960   1.203       .  T
C961        C962   1.398       .  A
C961        C966   1.405       .  A
C961       C1437   1.444       .  S
C962        C963   1.398       .  A
C962        H967   1.085       .  S
C963        C964   1.399       .  A
C963       C1439   1.435       .  S
C965       C1434   1.484       .  S
C966        H969   1.083       .  S
C970        C971   1.400       .  A
C970        C975   1.398       .  A
C970       C1432   1.439       .  S
C971        C972   1.402       .  A
C971        H976   1.084       .  S
C972        C973   1.405       .  A
C972       C1429   1.443       .  S
C973        C974   1.410       .  A
C973        H977   1.083       .  S
C974        C975   1.402       .  A
C974       C1425   1.484       .  S
C975        H978   1.085       .  S
C979        C980   1.400       .  A
C979       C1464   1.401       .  A
C979       C1423   1.442       .  S
C980        C981   1.401       .  A
C980        H985   1.085       .  S
C981       C1462   1.404       .  A
C981       C1422   1.443       .  S
C982       C1461   1.403   1_545  A
C982        C983   1.409       .  A
C982        H986   1.083       .  S
C983        C984   1.402       .  A
C983       C1417   1.483       .  S
C984       C1459   1.398       .  A
C984        H987   1.085       .  S
C988       C1418   1.476       .  S
C988        N989   1.357       .  A
C988        N993   1.360       .  A
N989        C990   1.359       .  A
C990       C1433   1.478       .  S
C990        N991   1.358       .  A
N991        C992   1.360       .  A
C992       C1426   1.478       .  S
C992        N993   1.357       .  A
C994       C1475   1.401       .  A
C994        C999   1.402   1_565  A
C994       C1895   1.442       .  S
C995       C1474   1.400       .  A
C995        C996   1.401       .  A
C995       H1000   1.085       .  S
C996        C997   1.414       .  A
C996       C1409   1.489       .  S
C997       C1478   1.405       .  A
C997       H1001   1.083       .  S
C998       C1477   1.404   1_545  A
C998        C999   1.402       .  A
C998       C1413   1.448       .  S
C999       H1002   1.084       .  S
C1003      C1004   1.397       .  A
C1003      C1008   1.406       .  A
C1003      C1407   1.444       .  S
C1004      C1005   1.397       .  A
C1004      H1009   1.085       .  S
C1005      C1006   1.402       .  A
C1005      C1406   1.439       .  S
C1006      C1007   1.407       .  A
C1006      H1010   1.084       .  S
C1007      C1008   1.415       .  A
C1007      C1402   1.495       .  S
C1008      H1011   1.082       .  S
C1012      C1410   1.476       .  S
C1012      N1013   1.352       .  A
C1012      N1017   1.366       .  A
N1013      C1014   1.349       .  A
C1014      C1398   1.470       .  S
C1014      N1015   1.356       .  A
N1015      C1016   1.360       .  A
C1016      C1401   1.482       .  S
C1016      N1017   1.368       .  A
C1018      C1019   1.400       .  A
C1018      C1023   1.403       .  A
C1019      C1020   1.401       .  A
C1019      H1024   1.085       .  S
C1020      C1021   1.408       .  A
C1020      C1397   1.482       .  S
C1021      C1022   1.399       .  A
C1021      H1025   1.083       .  S
C1022      C1023   1.403       .  A
C1022      C1395   1.443       .  S
Zn1027     O1031   1.966   1_554  S
Zn1027     O1512   2.016       .  S
Zn1027     O1516   2.016       .  S
Zn1028     O1511   1.959       .  S
Zn1028     O1033   2.015       .  S
Zn1028     O1035   2.011   1_556  S
Zn1029     O1511   1.962       .  S
Zn1029     O1034   2.017   1_556  S
Zn1029     O1037   2.035       .  S
Zn1029     O1520   2.028   1_545  S
Zn1030     O1041   2.008       .  S
Zn1030     O1042   2.013   1_556  S
O1031     Zn1508   1.966       .  S
O1031     Zn1509   1.967       .  S
O1032     Zn1507   2.005       .  S
O1032      C1044   1.270       .  A
O1033      C1045   1.271       .  A
O1034      C1046   1.272       .  A
O1035      C1044   1.271       .  A
O1036     Zn1507   2.009       .  S
O1036      C1046   1.271       .  A
O1037      C1045   1.275       .  A
O1038      C1047   1.270       .  A
O1039      C1528   1.272   1_545  A
O1040     Zn1509   2.041       .  S
O1040      C1047   1.275       .  A
O1041      C1048   1.271       .  A
O1042      C1049   1.271       .  A
O1043      C1049   1.271       .  A
C1044      C1440   1.430       .  S
C1045      C1408   1.439       .  S
C1046      C1424   1.432       .  S
C1047      C1396   1.438       .  S
C1048      C1416   1.432       .  S
C1048      O1519   1.272       .  A
C1049      C1431   1.434       .  S
C1050      C1051   1.402       .  A
C1050      C1055   1.403       .  A
C1050      C1391   1.442       .  S
C1051      C1052   1.401       .  A
C1051      H1056   1.084       .  S
C1052      C1053   1.399       .  A
C1052      C1389   1.441       .  S
C1053      C1054   1.403       .  A
C1053      H1057   1.085       .  S
C1054      C1055   1.409       .  A
C1054      C1385   1.484       .  S
C1055      H1058   1.083       .  S
C1059      C1540   1.399   1_545  A
C1059      C1064   1.400       .  A
C1059      C1382   1.440       .  S
C1060      C1539   1.399       .  A
C1060      C1061   1.400       .  A
C1060      H1065   1.085       .  S
C1061      C1062   1.402       .  A
C1061      C1383   1.440       .  S
C1062      C1063   1.409       .  A
C1062      H1066   1.083       .  S
C1063      C1544   1.405       .  A
C1063      C1378   1.485       .  S
C1064      C1543   1.404       .  A
C1064      H1067   1.085       .  S
C1068      C1069   1.401       .  A
C1068      C1073   1.402       .  A
C1068      C1374   1.440       .  S
C1069      C1070   1.400       .  A
C1069      H1074   1.084       .  S
C1070      C1071   1.399       .  A
C1071      C1072   1.403       .  A
C1072      C1073   1.408       .  A
C1072      C1370   1.483       .  S
C1073      H1076   1.083       .  S
C1077      N1078   1.361       .  A
C1077      N1082   1.358       .  A
N1078      C1079   1.358       .  A
C1079      C1377   1.478       .  S
C1079      N1560   1.359       .  A
N1080      C1559   1.360   1_545  A
N1080      C1081   1.358       .  A
C1081      C1369   1.476       .  S
C1081      N1562   1.359       .  A
N1082      C1561   1.359       .  A
Zn1083     O1087   1.963       .  S
Zn1083     O1088   2.013       .  S
Zn1083     O1092   2.014       .  S
Zn1083     O1099   2.015       .  S
Zn1084     O1087   1.965       .  S
Zn1084     O1089   2.033       .  S
Zn1084     O1091   2.019       .  S
Zn1084     O1095   2.012       .  S
Zn1085     O1087   1.966       .  S
Zn1085     O1090   2.023       .  S
Zn1085     O1093   2.029       .  S
Zn1085     O1096   2.021       .  S
Zn1086     O1087   1.966       .  S
Zn1086     O1094   2.018       .  S
Zn1086     O1097   2.021       .  S
Zn1086     O1098   2.023       .  S
O1088      C1100   1.271       .  A
O1089      C1101   1.274       .  A
O1090      C1102   1.273       .  A
O1091      C1100   1.272       .  A
O1092      C1102   1.272       .  A
O1093      C1101   1.273       .  A
O1094      C1103   1.272       .  A
O1095      C1104   1.271       .  A
O1096      C1103   1.273       .  A
O1097      C1104   1.272       .  A
O1098      C1105   1.272       .  A
O1099      C1105   1.271       .  A
C1100      C1405   1.434       .  S
C1101      C1414   1.443       .  S
C1102      C1381   1.435       .  S
C1103      C1376   1.435       .  S
C1104      C1393   1.434       .  S
C1105      C1390   1.436       .  S
C1106      C1107   1.399       .  A
C1106      C1111   1.399       .  A
C1106      C1367   1.440       .  S
C1107      C1108   1.400       .  A
C1107      H1112   1.085       .  S
C1108      C1109   1.404       .  A
C1108      C1365   1.441       .  S
C1109      C1110   1.409       .  A
C1109      H1113   1.083       .  S
C1110      C1111   1.404       .  A
C1110      C1361   1.484       .  S
C1111      H1114   1.085       .  S
C1115      C1116   1.399       .  A
C1115      C1120   1.401       .  A
C1115      C1359   1.441       .  S
C1117      C1353   1.485       .  S
C1118      C1119   1.404       .  A
C1118      H1122   1.083       .  S
C1119      C1120   1.402       .  A
C1119      C1357   1.444       .  S
C1120      H1123   1.084       .  S
C1124      C1605   1.402       .  A
C1124      C1129   1.402       .  A
C1124      C1349   1.442       .  S
C1125      C1604   1.403   1_545  A
C1125      C1126   1.409       .  A
C1125      H1130   1.083       .  S
C1126      C1127   1.403       .  A
C1126      C1345   1.485       .  S
C1127      C1608   1.399       .  A
C1127      H1131   1.085       .  S
C1128      C1607   1.400       .  A
C1128      C1129   1.401       .  A
C1128      C1351   1.442       .  S
C1129      H1132   1.084       .  S
C1133      C1354   1.478       .  S
C1133      N1134   1.357       .  A
C1133      N1138   1.360       .  A
N1134      C1135   1.360       .  A
C1135      C1346   1.478       .  S
C1135      N1136   1.357       .  A
N1136      C1137   1.360       .  A
C1137      C1362   1.479       .  S
C1137      N1138   1.358       .  A
Zn1139     O1143   1.961       .  S
Zn1139     O1144   2.013       .  S
Zn1139     O1148   2.015       .  S
Zn1139     O1155   2.013       .  S
Zn1140     O1143   1.972       .  S
Zn1140     O1145   2.023       .  S
Zn1140     O1147   2.029       .  S
Zn1140     O1151   2.021       .  S
Zn1141     O1143   1.964       .  S
Zn1141     O1146   2.025       .  S
Zn1141     O1149   2.013       .  S
Zn1141     O1152   2.022       .  S
Zn1142     O1143   1.966       .  S
Zn1142     O1150   2.028       .  S
Zn1142     O1153   2.018       .  S
Zn1142     O1154   2.026       .  S
O1144      C1156   1.271       .  A
O1145      C1157   1.273       .  A
O1146      C1158   1.273       .  A
O1147      C1156   1.273       .  A
O1148      C1158   1.271       .  A
O1149      C1157   1.271       .  A
O1150      C1159   1.273       .  A
O1151      C1160   1.272       .  A
O1152      C1159   1.272       .  A
O1153      C1160   1.272       .  A
O1154      C1161   1.273       .  A
O1155      C1161   1.271       .  A
C1156      C1392   1.437       .  S
C1157      C1384   1.435       .  S
C1158      C1350   1.437       .  S
C1159      C1358   1.439       .  S
C1160      C1373   1.435       .  S
C1161      C1366   1.436       .  S
C1162      C1163   1.399       .  A
C1162      C1167   1.401       .  A
C1162      C1343   1.441       .  S
C1163      C1164   1.400       .  A
C1163      H1168   1.085       .  S
C1164      C1165   1.404       .  A
C1164      C1341   1.442       .  S
C1165      C1166   1.410       .  A
C1165      H1169   1.083       .  S
C1166      C1167   1.405       .  A
C1166      C1338   1.487       .  S
C1167      H1170   1.084       .  S
C1171      C1172   1.398       .  A
C1171      C1176   1.400       .  A
C1171      C1336   1.440       .  S
C1172      C1173   1.402       .  A
C1172      H1177   1.085       .  S
C1173      C1174   1.411       .  A
C1173      C1329   1.485       .  S
C1174      C1175   1.406       .  A
C1174      H1178   1.083       .  S
C1175      C1176   1.403       .  A
C1180      C1181   1.403       .  A
C1180      C1665   1.401   1_545  A
C1180      C1326   1.442       .  S
C1181      C1182   1.402   1_545  A
C1181      H1186   1.084       .  S
C1182      C1663   1.400       .  A
C1182      C1807   1.443       .  S
C1183      C1662   1.399       .  A
C1183      C1184   1.403       .  A
C1183      H1187   1.085       .  S
C1184      C1185   1.409       .  A
C1184      C1322   1.484       .  S
C1185      C1660   1.403       .  A
C1185      H1188   1.083       .  S
C1189      C1330   1.479       .  S
C1189      N1190   1.361       .  A
C1189      N1194   1.356       .  A
N1190      C1191   1.359       .  A
C1191      C1337   1.481       .  S
C1191      N1192   1.360       .  A
N1192      C1193   1.357       .  A
C1193      C1321   1.477       .  S
C1193      N1194   1.359       .  A
Zn1195     O1679   1.967       .  S
Zn1195     O1200   2.023       .  S
Zn1195     O1204   2.023       .  S
Zn1195     O1211   2.021       .  S
Zn1196     O1199   1.967       .  S
Zn1196     O1201   2.025       .  S
Zn1196     O1203   2.016       .  S
Zn1197     O1199   1.965       .  S
Zn1197     O1682   2.018       .  S
Zn1197     O1205   2.017       .  S
Zn1198     O1206   2.021       .  S
Zn1198     O1689   2.021   1_545  S
O1199     Zn1675   1.964       .  S
O1200      C1692   1.272   1_545  A
O1201      C1213   1.273       .  A
O1202     Zn1677   2.015       .  S
O1202      C1214   1.272       .  A
O1203      C1212   1.272       .  A
O1204      C1214   1.273       .  A
O1205      C1213   1.272       .  A
O1206      C1215   1.273       .  A
O1207      C1216   1.273       .  A
O1208      C1215   1.272       .  A
O1209     Zn1678   2.012       .  S
O1209      C1216   1.271       .  A
O1210      C1217   1.271       .  A
O1211      C1217   1.273       .  A
C1212      C1328   1.434       .  S
C1212      O1680   1.272       .  A
C1213      C1360   1.437       .  S
C1214      C1368   1.435       .  S
C1215      C1352   1.435       .  S
C1216      C1344   1.436       .  S
C1217      C1335   1.435       .  S
C1218      C1219   1.400       .  A
C1218      C1223   1.403       .  A
C1218      C1318   1.440       .  S
C1219      C1220   1.401       .  A
C1219      H1224   1.085       .  S
C1220      C1701   1.407       .  A
C1220      C1314   1.481       .  S
C1221      C1700   1.409   1_545  A
C1221      C1222   1.403       .  A
C1221      H1225   1.083       .  S
C1222      C1703   1.402       .  A
C1222      C1320   1.443       .  S
C1223      C1702   1.402       .  A
C1223      H1226   1.084       .  S
C1227      C1228   1.400       .  A
C1227      C1232   1.399       .  A
C1227      C1310   1.442       .  S
C1228      C1229   1.410       .  A
C1228      H1233   1.083       .  S
C1229      C1230   1.404       .  A
C1229      C1305   1.488       .  S
C1230      C1231   1.403       .  A
C1230      H1234   1.084       .  S
C1231      C1232   1.401       .  A
C1231      C1311   1.440       .  S
C1232      H1235   1.085       .  S
C1236      C1237   1.399       .  A
C1236      C1241   1.402       .  A
C1237      C1238   1.398       .  A
C1237      H1242   1.085       .  S
C1238      C1239   1.401       .  A
C1238      C1304   1.439       .  S
C1239      C1240   1.405       .  A
C1239      H1243   1.084       .  S
C1240      C1241   1.409       .  A
C1240      C1297   1.486       .  S
C1245      C1306   1.474       .  S
C1245      N1726   1.363       .  A
C1245      N1250   1.355       .  A
N1246      C1725   1.358       .  A
N1246      C1247   1.361       .  A
C1247      C1298   1.478       .  S
C1247      N1248   1.358       .  A
N1248      C1249   1.360       .  A
C1249      N1730   1.356       .  A
N1250      C1729   1.352       .  A
Zn1251     O1255   1.964       .  S
Zn1251     O1256   2.017       .  S
Zn1251     O1260   2.021       .  S
Zn1251     O1267   2.024       .  S
Zn1252     O1255   1.970       .  S
Zn1252     O1257   2.021       .  S
Zn1252     O1259   2.018       .  S
Zn1252     O1263   2.025       .  S
Zn1253     O1255   1.963       .  S
Zn1253     O1258   2.024       .  S
Zn1253     O1261   2.011       .  S
Zn1253     O1264   2.022       .  S
Zn1254     O1255   1.964       .  S
Zn1254     O1262   2.031       .  S
Zn1254     O1265   2.017       .  S
Zn1254     O1266   2.025       .  S
O1256      C1268   1.272       .  A
O1257      C1269   1.272       .  A
O1258      C1270   1.273       .  A
O1259      C1268   1.271       .  A
O1260      C1270   1.272       .  A
O1261      C1269   1.271       .  A
O1262      C1271   1.274       .  A
O1263      C1272   1.273       .  A
O1264      C1271   1.272       .  A
O1265      C1272   1.272       .  A
O1266      C1273   1.273       .  A
O1267      C1273   1.273       .  A
C1268      C1317   1.435       .  S
C1269      C1303   1.434       .  S
C1270      C1421   1.438       .  S
C1271      C1438   1.440       .  S
C1272      C1309   1.437       .  S
C1273      C1430   1.439       .  S
Zn1274     O1278   1.963       .  S
Zn1274     O1279   2.013       .  S
Zn1274     O1283   2.022       .  S
Zn1274     O1290   2.022       .  S
Zn1275     O1278   1.970       .  S
Zn1275     O1280   2.025       .  S
Zn1275     O1282   2.027       .  S
Zn1275     O1286   2.022       .  S
Zn1276     O1278   1.966       .  S
Zn1276     O1281   2.027       .  S
Zn1276     O1284   2.024       .  S
Zn1276     O1287   2.029       .  S
Zn1277     O1278   1.963       .  S
Zn1277     O1285   2.011       .  S
Zn1277     O1288   2.013       .  S
Zn1277     O1289   2.018       .  S
O1279      C1291   1.271       .  A
O1280      C1292   1.273       .  A
O1281      C1293   1.273       .  A
O1282      C1291   1.273       .  A
O1283      C1293   1.273       .  A
O1284      C1292   1.273       .  A
O1285      C1294   1.271       .  A
O1286      C1295   1.272       .  A
O1287      C1294   1.273       .  A
O1288      C1295   1.271       .  A
O1289      C1296   1.272       .  A
O1290      C1296   1.272       .  A
C1291      C1302   1.436       .  S
C1292      C1319   1.438       .  S
C1293      C1333   1.438       .  S
C1294      C1325   1.437       .  S
C1295      C1312   1.435       .  S
C1296      C1342   1.437       .  S
C1297      C1298   1.346       .  D
C1297      H1299   1.087       .  S
C1298      H1300   1.085       .  S
C1301      C1302   1.206       .  T
C1303      C1304   1.205       .  T
C1305      C1306   1.343       .  D
C1305      H1307   1.087       .  S
C1306      H1308   1.086       .  S
C1309      C1310   1.207       .  T
C1311      C1312   1.206       .  T
C1313      C1314   1.343       .  D
C1313      H1315   1.086       .  S
C1314      H1796   1.087       .  S
H1316      C1794   1.087       .  S
C1317      C1318   1.206       .  T
C1319      C1320   1.208       .  T
C1321      C1322   1.345       .  D
C1321      H1323   1.085       .  S
C1322      H1324   1.087       .  S
C1325      C1326   1.207       .  T
C1327      C1662   1.439       .  S
C1327      C1328   1.205       .  T
C1329      C1330   1.344       .  D
C1329      H1331   1.087       .  S
C1330      H1332   1.086       .  S
C1333      C1334   1.208       .  T
C1335      C1336   1.206       .  T
C1337      C1338   1.347       .  D
C1337      H1339   1.085       .  S
C1338      H1340   1.087       .  S
C1341      C1342   1.207       .  T
C1343      C1344   1.207       .  T
C1345      C1346   1.345       .  D
C1345      H1347   1.087       .  S
C1346      H1348   1.085       .  S
C1349      C1350   1.207       .  T
C1351      C1832   1.207       .  T
C1352      C1831   1.206       .  T
C1353      C1354   1.345       .  D
C1353      H1355   1.087       .  S
C1354      H1356   1.085       .  S
C1357      C1358   1.208       .  T
C1359      C1360   1.207       .  T
C1361      C1362   1.345       .  D
C1361      H1363   1.087       .  S
C1362      H1364   1.086       .  S
C1365      C1366   1.206       .  T
C1367      C1368   1.206       .  T
C1369      C1370   1.345       .  D
C1369      H1371   1.085       .  S
C1370      H1372   1.087       .  S
C1373      C1374   1.206       .  T
C1375      C1376   1.206       .  T
C1377      C1378   1.347       .  D
C1377      H1379   1.085       .  S
C1378      H1380   1.087       .  S
C1381      C1382   1.206       .  T
C1383      C1384   1.206       .  T
C1385      C1386   1.345       .  D
C1385      H1387   1.087       .  S
C1386      H1388   1.085       .  S
C1389      C1390   1.206       .  T
C1391      C1392   1.207       .  T
C1393      C1394   1.206       .  T
C1395      C1396   1.208       .  T
C1397      C1398   1.342       .  D
C1397      H1399   1.087       .  S
C1398      H1400   1.086       .  S
C1401      C1402   1.346       .  D
C1401      H1403   1.084       .  S
C1402      H1404   1.087       .  S
C1405      C1406   1.205       .  T
C1407      C1408   1.208       .  T
C1409      C1410   1.340       .  D
C1409      H1411   1.087       .  S
C1410      H1412   1.086       .  S
C1413      C1414   1.211       .  T
C1415      C1474   1.437       .  S
C1415      C1416   1.204       .  T
C1417      C1418   1.344       .  D
C1417      H1419   1.087       .  S
C1418      H1420   1.085       .  S
C1421      C1422   1.208       .  T
C1423      C1904   1.207       .  T
C1424      C1903   1.204       .  T
C1425      C1426   1.344       .  D
C1425      H1427   1.087       .  S
C1426      H1428   1.085       .  S
C1429      C1430   1.208       .  T
C1431      C1432   1.205       .  T
C1433      C1434   1.346       .  D
C1433      H1435   1.085       .  S
C1434      H1436   1.087       .  S
C1437      C1438   1.209       .  T
C1439      C1440   1.203       .  T
C1441      C1442   1.401       .  A
C1441      C1446   1.404       .  A
C1441      C1917   1.443       .  S
C1442      C1443   1.399       .  A
C1442      H1447   1.085       .  S
C1443      C1444   1.399       .  A
C1443      C1919   1.440       .  S
C1445      C1914   1.484       .  S
C1446      H1449   1.083       .  S
C1450      C1451   1.400       .  A
C1450      C1455   1.402       .  A
C1450      C1912   1.444       .  S
C1451      C1452   1.401       .  A
C1451      H1456   1.085       .  S
C1452      C1453   1.402       .  A
C1452      C1909   1.442       .  S
C1453      C1454   1.409       .  A
C1453      H1457   1.083       .  S
C1454      C1455   1.406       .  A
C1454      C1905   1.486       .  S
C1455      H1458   1.085       .  S
C1459      C1460   1.399   1_545  A
C1459      C1903   1.437       .  S
C1460      C1461   1.400       .  A
C1460      H1465   1.085       .  S
C1461      C1902   1.439       .  S
C1462      C1463   1.410       .  A
C1462      H1466   1.083       .  S
C1463      C1464   1.405       .  A
C1463      C1897   1.488       .  S
C1464      H1467   1.084       .  S
C1468      C1898   1.480       .  S
C1468      N1469   1.358       .  A
C1468      N1473   1.362       .  A
N1469      C1470   1.360       .  A
C1470      C1913   1.477       .  S
C1470      N1471   1.356       .  A
N1471      C1472   1.359       .  A
C1472      C1906   1.479       .  S
C1472      N1473   1.359       .  A
C1474      C1479   1.400       .  A
C1475      C1476   1.402       .  A
C1475      H1480   1.085       .  S
C1476      C1477   1.413       .  A
C1476      C1889   1.489       .  S
C1477      H1481   1.083       .  S
C1478      C1479   1.400       .  A
C1478      C1893   1.447       .  S
C1479      H1482   1.085       .  S
C1483      C1484   1.397       .  A
C1483      C1488   1.404       .  A
C1483      C1887   1.443       .  S
C1484      C1485   1.398       .  A
C1484      H1489   1.085       .  S
C1485      C1486   1.404       .  A
C1485      C1886   1.441       .  S
C1486      C1487   1.407       .  A
C1486      H1490   1.084       .  S
C1487      C1488   1.414       .  A
C1487      C1882   1.494       .  S
C1488      H1491   1.082       .  S
C1492      C1890   1.477       .  S
C1492      N1493   1.354       .  A
C1492      N1497   1.366       .  A
N1493      C1494   1.351       .  A
C1494      C1878   1.471       .  S
C1494      N1495   1.356       .  A
N1495      C1496   1.359       .  A
C1496      C1881   1.481       .  S
C1496      N1497   1.367       .  A
C1498      C1499   1.401       .  A
C1498      C1503   1.401       .  A
C1499      C1500   1.403       .  A
C1499      H1504   1.085       .  S
C1500      C1501   1.407       .  A
C1500      C1877   1.483       .  S
C1501      C1502   1.399       .  A
C1501      H1505   1.083       .  S
C1502      C1503   1.400       .  A
C1502      C1875   1.439       .  S
Zn1507     O1511   1.959   1_554  S
Zn1508     O1513   2.016       .  S
Zn1508     O1515   2.019   1_556  S
Zn1509     O1514   2.027   1_556  S
Zn1509     O1517   2.035       .  S
Zn1510     O1521   2.017       .  S
Zn1510     O1522   2.015   1_556  S
O1512      C1524   1.271       .  A
O1513      C1525   1.272       .  A
O1514      C1526   1.274       .  A
O1515      C1524   1.272       .  A
O1516      C1526   1.272       .  A
O1517      C1525   1.275       .  A
O1518      C1527   1.270       .  A
O1520      C1527   1.274       .  A
O1521      C1528   1.272       .  A
O1522      C1529   1.272       .  A
O1523      C1529   1.274   1_455  A
C1524      C1920   1.435       .  S
C1525      C1888   1.439       .  S
C1526      C1904   1.437       .  S
C1527      C1876   1.434       .  S
C1528      C1896   1.437       .  S
C1529      C1911   1.439       .  S
C1530      C1531   1.399       .  A
C1530      C1535   1.400       .  A
C1530      C1871   1.439       .  S
C1531      C1532   1.400       .  A
C1531      H1536   1.085       .  S
C1532      C1533   1.401       .  A
C1532      C1869   1.439       .  S
C1533      C1534   1.408       .  A
C1533      H1537   1.083       .  S
C1534      C1535   1.404       .  A
C1534      C1865   1.484       .  S
C1535      H1538   1.084       .  S
C1539      C1544   1.400       .  A
C1539      C1862   1.440       .  S
C1540      C1541   1.400       .  A
C1540      H1545   1.085       .  S
C1541      C1542   1.403       .  A
C1541      C1863   1.441       .  S
C1542      C1543   1.410   1_565  A
C1542      H1546   1.083       .  S
C1543      C1858   1.485       .  S
C1544      H1547   1.084       .  S
C1548      C1549   1.401       .  A
C1548      C1553   1.402       .  A
C1548      C1854   1.441       .  S
C1549      C1550   1.400       .  A
C1549      H1554   1.084       .  S
C1550      C1551   1.400       .  A
C1551      C1552   1.404       .  A
C1552      C1553   1.409       .  A
C1552      C1850   1.485       .  S
C1553      H1556   1.083       .  S
C1557      N1558   1.359       .  A
C1557      N1562   1.356   1_565  A
N1558      C1559   1.357       .  A
C1559      C1857   1.477       .  S
N1560      C1561   1.356       .  A
C1561      C1849   1.477       .  S
Zn1563     O1567   1.963       .  S
Zn1563     O1568   2.016       .  S
Zn1563     O1572   2.018       .  S
Zn1563     O1579   2.012       .  S
Zn1564     O1567   1.967       .  S
Zn1564     O1569   2.039       .  S
Zn1564     O1571   2.021       .  S
Zn1564     O1575   2.019       .  S
Zn1565     O1567   1.962       .  S
Zn1565     O1570   2.020       .  S
Zn1565     O1573   2.022       .  S
Zn1565     O1576   2.018       .  S
Zn1566     O1567   1.967       .  S
Zn1566     O1574   2.023       .  S
Zn1566     O1577   2.022       .  S
Zn1566     O1578   2.020       .  S
O1568      C1580   1.272       .  A
O1569      C1581   1.275       .  A
O1570      C1582   1.272       .  A
O1571      C1580   1.272       .  A
O1572      C1582   1.272       .  A
O1573      C1581   1.272       .  A
O1574      C1583   1.273       .  A
O1575      C1584   1.272       .  A
O1576      C1583   1.272       .  A
O1577      C1584   1.273       .  A
O1578      C1585   1.272       .  A
O1579      C1585   1.271       .  A
C1580      C1885   1.436       .  S
C1581      C1894   1.442       .  S
C1582      C1861   1.436       .  S
C1583      C1856   1.436       .  S
C1584      C1873   1.436       .  S
C1585      C1870   1.434       .  S
C1586      C1587   1.399       .  A
C1586      C1591   1.401       .  A
C1586      C1847   1.441       .  S
C1587      C1588   1.400       .  A
C1587      H1592   1.085       .  S
C1588      C1589   1.402       .  A
C1588      C1845   1.440       .  S
C1589      C1590   1.409       .  A
C1589      H1593   1.083       .  S
C1590      C1591   1.405       .  A
C1590      C1841   1.487       .  S
C1591      H1594   1.084       .  S
C1595      C1596   1.400       .  A
C1595      C1600   1.400       .  A
C1595      C1839   1.441       .  S
C1597      C1833   1.485       .  S
C1598      C1599   1.402       .  A
C1598      H1602   1.083       .  S
C1599      C1600   1.401       .  A
C1599      C1837   1.441       .  S
C1600      H1603   1.085       .  S
C1604      C1609   1.401       .  A
C1604      C1829   1.441       .  S
C1605      C1606   1.408       .  A
C1605      H1610   1.083       .  S
C1606      C1607   1.404       .  A
C1606      C1825   1.485       .  S
C1607      H1611   1.084       .  S
C1608      C1609   1.400   1_545  A
C1608      C1831   1.440       .  S
C1609      H1612   1.085       .  S
C1613      C1834   1.480       .  S
C1613      N1614   1.358       .  A
C1613      N1618   1.361       .  A
N1614      C1615   1.360       .  A
C1615      C1826   1.477       .  S
C1615      N1616   1.357       .  A
N1616      C1617   1.359       .  A
C1617      C1842   1.479       .  S
C1617      N1618   1.358       .  A
Zn1619     O1623   1.964       .  S
Zn1619     O1624   2.012       .  S
Zn1619     O1628   2.020       .  S
Zn1619     O1635   2.019       .  S
Zn1620     O1623   1.970       .  S
Zn1620     O1625   2.025       .  S
Zn1620     O1627   2.022       .  S
Zn1620     O1631   2.023       .  S
Zn1621     O1623   1.962       .  S
Zn1621     O1626   2.020       .  S
Zn1621     O1629   2.015       .  S
Zn1621     O1632   2.016       .  S
Zn1622     O1623   1.964       .  S
Zn1622     O1630   2.023       .  S
Zn1622     O1633   2.017       .  S
Zn1622     O1634   2.020       .  S
O1624      C1636   1.271       .  A
O1625      C1637   1.273       .  A
O1626      C1638   1.272       .  A
O1627      C1636   1.273       .  A
O1628      C1638   1.272       .  A
O1629      C1637   1.271       .  A
O1630      C1639   1.273       .  A
O1631      C1640   1.272       .  A
O1632      C1639   1.272       .  A
O1633      C1640   1.272       .  A
O1634      C1641   1.272       .  A
O1635      C1641   1.272       .  A
C1636      C1872   1.434       .  S
C1637      C1864   1.436       .  S
C1638      C1830   1.436       .  S
C1639      C1838   1.436       .  S
C1640      C1853   1.436       .  S
C1641      C1846   1.436       .  S
C1642      C1643   1.401       .  A
C1642      C1647   1.400       .  A
C1642      C1823   1.442       .  S
C1643      C1644   1.402       .  A
C1643      H1648   1.084       .  S
C1644      C1645   1.403       .  A
C1644      C1821   1.443       .  S
C1645      C1646   1.409       .  A
C1645      H1649   1.083       .  S
C1646      C1647   1.404       .  A
C1646      C1818   1.485       .  S
C1647      H1650   1.085       .  S
C1651      C1652   1.401       .  A
C1651      C1656   1.401       .  A
C1651      C1816   1.442       .  S
C1652      C1653   1.404       .  A
C1652      H1657   1.085       .  S
C1653      C1654   1.409       .  A
C1653      C1809   1.485       .  S
C1654      C1655   1.401       .  A
C1654      H1658   1.083       .  S
C1655      C1656   1.402       .  A
C1660      C1661   1.401       .  A
C1660      C1806   1.441       .  S
C1661      C1662   1.399       .  A
C1661      H1666   1.085       .  S
C1663      C1664   1.404       .  A
C1663      H1667   1.085       .  S
C1664      C1665   1.407       .  A
C1664      C1802   1.484       .  S
C1665      H1668   1.083       .  S
C1669      C1810   1.476       .  S
C1669      N1670   1.359       .  A
C1669      N1674   1.356       .  A
N1670      C1671   1.358       .  A
C1671      C1817   1.477       .  S
C1671      N1672   1.361       .  A
N1672      C1673   1.358       .  A
C1673      C1801   1.477       .  S
C1673      N1674   1.359       .  A
Zn1675     O1680   2.017       .  S
Zn1675     O1684   2.019       .  S
Zn1675     O1691   2.020       .  S
Zn1676     O1679   1.967   1_565  S
Zn1676     O1681   2.023       .  S
Zn1676     O1683   2.026       .  S
Zn1677     O1679   1.966       .  S
Zn1677     O1685   2.018   1_545  S
Zn1678     O1686   2.019       .  S
O1681      C1693   1.273       .  A
O1682      C1694   1.272       .  A
O1683      C1692   1.273       .  A
O1684      C1694   1.272       .  A
O1685      C1693   1.272       .  A
O1686      C1695   1.272       .  A
O1687      C1696   1.273       .  A
O1688      C1695   1.272       .  A
O1689      C1696   1.273       .  A
O1690      C1697   1.272       .  A
O1691      C1697   1.272       .  A
C1692      C1808   1.439       .  S
C1693      C1840   1.436       .  S
C1694      C1848   1.436       .  S
C1695      C1832   1.437       .  S
C1696      C1824   1.437       .  S
C1697      C1815   1.437       .  S
C1698      C1699   1.398       .  A
C1698      C1703   1.401   1_565  A
C1698      C1798   1.439       .  S
C1699      C1700   1.402       .  A
C1699      H1704   1.085       .  S
C1700      C1794   1.484       .  S
C1701      C1702   1.400       .  A
C1701      H1705   1.083       .  S
C1702      C1800   1.441       .  S
C1703      H1706   1.084       .  S
C1707      C1708   1.399       .  A
C1707      C1712   1.398       .  A
C1707      C1790   1.438       .  S
C1708      C1709   1.404       .  A
C1708      H1713   1.085       .  S
C1709      C1710   1.409       .  A
C1709      C1785   1.483       .  S
C1710      C1711   1.403       .  A
C1710      H1714   1.083       .  S
C1711      C1712   1.400       .  A
C1711      C1791   1.439       .  S
C1712      H1715   1.085       .  S
C1716      C1717   1.401       .  A
C1716      C1721   1.405       .  A
C1717      C1718   1.400       .  A
C1717      H1722   1.085       .  S
C1718      C1719   1.401       .  A
C1718      C1784   1.442       .  S
C1719      C1720   1.405       .  A
C1719      H1723   1.084       .  S
C1720      C1721   1.413       .  A
C1720      C1777   1.491       .  S
C1725      C1786   1.478       .  S
C1725      N1730   1.359       .  A
N1726      C1727   1.365   1_545  A
C1727      C1778   1.481       .  S
C1727      N1728   1.359       .  A
N1728      C1729   1.358   1_565  A
Zn1731     O1735   1.962       .  S
Zn1731     O1736   2.015       .  S
Zn1731     O1740   2.013       .  S
Zn1731     O1747   2.018       .  S
Zn1732     O1735   1.967       .  S
Zn1732     O1737   2.020       .  S
Zn1732     O1739   2.018       .  S
Zn1732     O1743   2.020       .  S
Zn1733     O1735   1.962       .  S
Zn1733     O1738   2.019       .  S
Zn1733     O1741   2.019       .  S
Zn1733     O1744   2.018       .  S
Zn1734     O1735   1.964       .  S
Zn1734     O1742   2.026       .  S
Zn1734     O1745   2.011       .  S
Zn1734     O1746   2.025       .  S
O1736      C1748   1.271       .  A
O1737      C1749   1.272       .  A
O1738      C1750   1.272       .  A
O1739      C1748   1.272       .  A
O1740      C1750   1.271       .  A
O1741      C1749   1.272       .  A
O1742      C1751   1.273       .  A
O1743      C1752   1.272       .  A
O1744      C1751   1.272       .  A
O1745      C1752   1.271       .  A
O1746      C1753   1.273       .  A
O1747      C1753   1.272       .  A
C1748      C1797   1.434       .  S
C1749      C1783   1.437       .  S
C1750      C1901   1.434       .  S
C1751      C1918   1.438       .  S
C1752      C1789   1.433       .  S
C1753      C1910   1.437       .  S
Zn1754     O1758   1.963       .  S
Zn1754     O1759   2.012       .  S
Zn1754     O1763   2.025       .  S
Zn1754     O1770   2.020       .  S
Zn1755     O1758   1.972       .  S
Zn1755     O1760   2.024       .  S
Zn1755     O1762   2.028       .  S
Zn1755     O1766   2.021       .  S
Zn1756     O1758   1.964       .  S
Zn1756     O1761   2.026       .  S
Zn1756     O1764   2.018       .  S
Zn1756     O1767   2.021       .  S
Zn1757     O1758   1.964       .  S
Zn1757     O1765   2.018       .  S
Zn1757     O1768   2.012       .  S
Zn1757     O1769   2.024       .  S
O1759      C1771   1.271       .  A
O1760      C1772   1.272       .  A
O1761      C1773   1.273       .  A
O1762      C1771   1.273       .  A
O1763      C1773   1.273       .  A
O1764      C1772   1.272       .  A
O1765      C1774   1.272       .  A
O1766      C1775   1.272       .  A
O1767      C1774   1.272       .  A
O1768      C1775   1.271       .  A
O1769      C1776   1.273       .  A
O1770      C1776   1.272       .  A
C1771      C1782   1.436       .  S
C1772      C1799   1.436       .  S
C1773      C1813   1.439       .  S
C1774      C1805   1.436       .  S
C1775      C1792   1.434       .  S
C1776      C1822   1.438       .  S
C1777      C1778   1.345       .  D
C1777      H1779   1.087       .  S
C1778      H1780   1.085       .  S
C1781      C1782   1.207       .  T
C1783      C1784   1.207       .  T
C1785      C1786   1.346       .  D
C1785      H1787   1.087       .  S
C1786      H1788   1.085       .  S
C1789      C1790   1.205       .  T
C1791      C1792   1.205       .  T
C1793      C1794   1.343   1_545  D
C1793      H1795   1.085       .  S
C1797      C1798   1.205       .  T
C1799      C1800   1.207       .  T
C1801      C1802   1.346       .  D
C1801      H1803   1.085       .  S
C1802      H1804   1.087       .  S
C1805      C1806   1.206       .  T
C1807      C1808   1.208       .  T
C1809      C1810   1.345       .  D
C1809      H1811   1.087       .  S
C1810      H1812   1.085       .  S
C1813      C1814   1.208       .  T
C1815      C1816   1.207       .  T
C1817      C1818   1.345       .  D
C1817      H1819   1.086       .  S
C1818      H1820   1.087       .  S
C1821      C1822   1.208       .  T
C1823      C1824   1.207       .  T
C1825      C1826   1.345       .  D
C1825      H1827   1.087       .  S
C1826      H1828   1.085       .  S
C1829      C1830   1.207       .  T
C1833      C1834   1.345       .  D
C1833      H1835   1.087       .  S
C1834      H1836   1.086       .  S
C1837      C1838   1.207       .  T
C1839      C1840   1.206       .  T
C1841      C1842   1.347       .  D
C1841      H1843   1.087       .  S
C1842      H1844   1.085       .  S
C1845      C1846   1.206       .  T
C1847      C1848   1.206       .  T
C1849      C1850   1.345       .  D
C1849      H1851   1.085       .  S
C1850      H1852   1.087       .  S
C1853      C1854   1.206       .  T
C1855      C1856   1.206       .  T
C1857      C1858   1.345   1_565  D
C1857      H1859   1.085       .  S
C1858      H1860   1.087       .  S
C1861      C1862   1.206       .  T
C1863      C1864   1.207       .  T
C1865      C1866   1.345       .  D
C1865      H1867   1.087       .  S
C1866      H1868   1.085       .  S
C1869      C1870   1.205       .  T
C1871      C1872   1.205       .  T
C1873      C1874   1.207       .  T
C1875      C1876   1.205       .  T
C1877      C1878   1.344       .  D
C1877      H1879   1.087       .  S
C1878      H1880   1.085       .  S
C1881      C1882   1.346       .  D
C1881      H1883   1.085       .  S
C1882      H1884   1.087       .  S
C1885      C1886   1.206       .  T
C1887      C1888   1.208       .  T
C1889      C1890   1.342       .  D
C1889      H1891   1.087       .  S
C1890      H1892   1.086       .  S
C1893      C1894   1.210       .  T
C1895      C1896   1.207       .  T
C1897      C1898   1.346       .  D
C1897      H1899   1.087       .  S
C1898      H1900   1.085       .  S
C1901      C1902   1.205       .  T
C1905      C1906   1.348       .  D
C1905      H1907   1.087       .  S
C1906      H1908   1.085       .  S
C1909      C1910   1.207       .  T
C1911      C1912   1.208       .  T
C1913      C1914   1.344       .  D
C1913      H1915   1.086       .  S
C1914      H1916   1.087       .  S
C1917      C1918   1.207       .  T
C1919      C1920   1.206       .  T
