geometry optimzed in LAMMPS
_audit_creation_date              2020-12-01 
_audit_creation_method            'lammps2cif' 
_symmetry_space_group_name_H-M    'P1' 
_symmetry_Int_Tables_number       1 
_symmetry_cell_setting            triclinic 
loop_ 
_symmetry_equiv_pos_as_xyz 
  x,y,z 
_cell_length_a                    42.20446943 
_cell_length_b                    37.849302344241984 
_cell_length_c                    26.649598460651244 
_cell_angle_alpha                 90.48019221842968 
_cell_angle_beta                  101.92669951076006 
_cell_angle_gamma                 89.94149150401286 
loop_ 
_atom_site_label 
_atom_site_type_symbol 
_atom_site_fract_x 
_atom_site_fract_y 
_atom_site_fract_z 
_atom_site_charge 
C1          C  0.82922722  0.08189560  0.40844627     0.29800
C2          C  0.77137383  0.04648118  0.38966174     0.29800
C3          C  0.81644573  0.06979530  0.35112442    -0.06400
C4          C  0.82855815  0.04644114  0.43737712    -0.07100
C5          C  0.79908603  0.10297925  0.42100136    -0.07000
C6          C  0.78574119  0.05374541  0.34208591    -0.06400
C7          C  0.79941798  0.02862289  0.42516293    -0.07100
C8          C  0.77015387  0.08361838  0.41235976    -0.07000
C9          C  0.78240050  0.03468542  0.29753756    -0.32400
N10         N  0.81038118  0.03427749  0.28061529     0.14100
C11         C  0.83146381  0.05573797  0.31234482    -0.32400
H12         H  0.85625169  0.05897062  0.30869692     0.16000
C13         C  0.80195278  0.99806130  0.45211402    -0.31400
N14         N  0.83061798  0.99750178  0.98630579     0.12800
C15         C  0.84772207  0.02652273  0.47620670    -0.31400
C16         C  0.74469055  0.10730653  0.40567414    -0.31700
N17         N  0.75567267  0.14060338  0.41352212     0.13300
H18         H  0.71959404  0.10120530  0.38961360     0.15900
C19         C  0.78862547  0.13871061  0.41901303    -0.31700
H20         H  0.80330029  0.16152382  0.41514388     0.15900
H21         H  0.87140604  0.03385993  0.49745148     0.15900
H22         H  0.76145830  0.51931622  0.28024963     0.16000
H23         H  0.78193378  0.48018688  0.45214175     0.15900
O24         O  0.73581385  0.19807505  0.42897912    -0.82000
C25         C  0.66982760  0.26299592  0.25253270     0.97400
O26         O  0.69440206  0.24527929  0.27095109    -0.71100
O27         O  0.74400798  0.23115664  0.33971377    -0.74700
Al28       Al  0.70178110  0.20928829  0.31735752     1.49000
C29         C  0.75381957  0.25652862  0.37075893     0.92600
O30         O  0.68589219  0.28639150  0.43590598    -0.80900
O31         O  0.63465677  0.24567231  0.41484647    -0.74500
Al32       Al  0.70720964  0.24065251  0.42495668     1.90100
O33         O  0.65951271  0.29575988  0.35760682    -0.73500
O34         O  0.62613759  0.20496598  0.32915828    -0.73400
O35         O  0.64495239  0.26085168  0.27214036    -0.79000
O36         O  0.66187581  0.18375192  0.28710964    -0.77200
O37         O  0.68449038  0.23298930  0.36194836    -1.13400
O38         O  0.71315135  0.16955540  0.35948026    -0.72600
C39         C  0.73434068  0.17081270  0.40027316     0.98200
C40         C  0.66781819  0.30585849  0.40328283     0.94600
Al41       Al  0.64426261  0.24989087  0.34446319     1.55600
O42         O  0.73789033  0.26755126  0.40250907    -0.77200
C43         C  0.63471486  0.18158480  0.30076230     0.98700
C44         C  0.65181939  0.23234972  0.45538877     0.93600
O45         O  0.67611882  0.21398797  0.45062992    -0.82500
C46         C  0.65257949  0.33405196  0.08448714     0.29800
C47         C  0.71112572  0.30065632  0.10251274     0.29800
C48         C  0.66557314  0.32230673  0.14142935    -0.06400
C49         C  0.65413869  0.29829155  0.05457863    -0.07100
C50         C  0.68217864  0.35579007  0.07186000    -0.07000
C51         C  0.69586976  0.30627899  0.14893800    -0.06400
C52         C  0.68385909  0.28077590  0.06669037    -0.07100
C53         C  0.71069926  0.33653491  0.07777991    -0.07000
C54         C  0.69900035  0.28434004  0.18984969    -0.32400
N55         N  0.67220970  0.28529262  0.20967159     0.14100
C56         C  0.65117362  0.30796149  0.18046965    -0.32400
H57         H  0.62679884  0.31208644  0.18588754     0.16000
C58         C  0.68095357  0.24960545  0.03997832    -0.31400
N59         N  0.65259532  0.24922922  0.50489013     0.12800
C60         C  0.63549854  0.27854172  0.01453548    -0.31400
C61         C  0.73615420  0.35829440  0.07457139    -0.31700
N62         N  0.72605936  0.39186483  0.07244398     0.13300
H63         H  0.76142333  0.35070527  0.08146274     0.15900
C64         C  0.69361169  0.39111137  0.07338654    -0.31700
H65         H  0.68036419  0.41431679  0.08108307     0.15900
H66         H  0.61263530  0.28674266  0.99126652     0.15900
H67         H  0.71872631  0.26580949  0.20113724     0.16000
H68         H  0.69985489  0.23024634  0.54119032     0.15900
O69         O  0.74777566  0.44820914  0.06099791    -0.82000
C70         C  0.81433046  0.51062394  0.23923399     0.97400
O71         O  0.79093326  0.49081628  0.22197013    -0.71100
O72         O  0.74144505  0.47861306  0.15346451    -0.74700
Al73       Al  0.78306691  0.45611126  0.17286562     1.49000
C74         C  0.73135902  0.50473339  0.12476189     0.92600
O75         O  0.79746912  0.03488219  0.05762961    -0.80900
O76         O  0.84945744  0.49386826  0.07621307    -0.74500
Al77       Al  0.77670023  0.98956371  0.06729118     1.90100
O78         O  0.82592205  0.04371923  0.13514058    -0.73500
O79         O  0.85890069  0.45296922  0.16146812    -0.73400
O80         O  0.83925408  0.00953370  0.21947327    -0.79000
O81         O  0.82272066  0.43015117  0.20067650    -0.77200
O82         O  0.79998913  0.48107788  0.12953528    -1.13400
O83         O  0.77066005  0.41749721  0.12737411    -0.72600
C84         C  0.74889266  0.42045216  0.08738639     0.98200
C85         C  0.81515124  0.05449197  0.09064372     0.94600
Al86       Al  0.84037471  0.49796086  0.14702629     1.55600
O87         O  0.74628535  0.01619800  0.09208878    -0.77200
C88         C  0.85034386  0.42912438  0.18859277     0.98700
C89         C  0.83173413  0.98085906  0.03556869     0.93600
O90         O  0.80734271  0.96280911  0.04026953    -0.82500
O91         O  0.51679926  0.47150451  0.20802071    -0.82000
C92         C  0.64682968  0.48353295  0.31609269     0.97400
O93         O  0.62242495  0.48603533  0.33687644    -0.71100
O94         O  0.57997301  0.03189049  0.29661211    -0.74700
Al95       Al  0.57629651  0.48371955  0.30882639     1.49000
C96         C  0.56676466  0.05049529  0.25952058     0.92600
O97         O  0.58867727  0.01218175  0.16915372    -0.80900
O98         O  0.58013381  0.41035675  0.19979594    -0.74500
Al99       Al  0.55413425  0.99050855  0.19032656     1.90100
O100        O  0.61836783  0.46429785  0.17430277    -0.73500
O101        O  0.61277609  0.41614808  0.29591503    -0.73400
O102        O  0.64408081  0.47181667  0.27100351    -0.79000
O103        O  0.57421326  0.43630998  0.33196927    -0.77200
O104        O  0.58033132  0.47210073  0.24554100    -1.13400
O105        O  0.52937081  0.48387574  0.29105987    -0.72600
C106        C  0.50862845  0.47610533  0.25058338     0.98200
C107        C  0.61297440  0.99604577  0.16101467     0.94600
Al108      Al  0.61107471  0.44263450  0.23587781     1.55600
O109        O  0.54871666  0.03638430  0.22069428    -0.77200
C110        C  0.59754974  0.41553624  0.33175242     0.98700
C111        C  0.56678952  0.41814662  0.15447095     0.93600
O112        O  0.55585191  0.44928095  0.14481940    -0.82500
O113        O  0.96511716  0.22161802  0.29421196    -0.82000
C114        C  0.83780558  0.24715181  0.18748070     0.97400
O115        O  0.86093389  0.24061033  0.16528033    -0.71100
O116        O  0.90820094  0.28170512  0.20210989    -0.74700
Al117      Al  0.90614530  0.23292296  0.19379384     1.49000
C118        C  0.92052152  0.30122147  0.23921170     0.92600
O119        O  0.89715133  0.26944335  0.33671678    -0.78900
O120        O  0.89220081  0.16708074  0.30256483    -0.74500
Al121      Al  0.92897574  0.24357509  0.31248361     1.90100
O122        O  0.86323594  0.22571671  0.33132691    -0.73500
O123        O  0.85961016  0.17637188  0.20839928    -0.73400
O124        O  0.83910921  0.23907688  0.23390610    -0.79000
O125        O  0.90235389  0.18387585  0.17547907    -0.77200
O126        O  0.90103422  0.22648809  0.25801051    -1.13400
O127        O  0.95211047  0.22799409  0.21039820    -0.72600
C128        C  0.97292515  0.22272624  0.25111659     0.98200
C129        C  0.87222636  0.25620504  0.34684957     0.94600
Al130      Al  0.86651170  0.20370468  0.26827699     1.55600
O131        O  0.93591323  0.28814121  0.28084447    -0.77200
C132        C  0.87528277  0.16931071  0.17447255     0.98700
C133        C  0.91022728  0.17255534  0.34600951     0.93600
O134        O  0.92492578  0.20213970  0.35625247    -0.82500
C135        C  0.15218581  0.08424465  0.08371622     0.29800
C136        C  0.21052459  0.05017744  0.10271620     0.29800
C137        C  0.16421548  0.07138582  0.14033732    -0.06400
C138        C  0.15397538  0.04918147  0.05256383    -0.07100
C139        C  0.18233154  0.10610523  0.07341777    -0.07000
C140        C  0.19422167  0.05458456  0.14829711    -0.06400
C141        C  0.18358364  0.03149387  0.06463262    -0.07100
C142        C  0.21096019  0.08694518  0.08094580    -0.07000
C143        C  0.19586567  0.03158797  0.18769456    -0.32400
N144        N  0.16874911  0.03321696  0.20681001     0.14100
C145        C  0.14888039  0.05727155  0.17838669    -0.32400
H146        H  0.12467520  0.06272460  0.18368142     0.16000
C147        C  0.18046328  0.00036490  0.03776982    -0.31400
N148        N  0.15179104  0.99992215  0.50336100     0.12800
C149        C  0.13489842  0.02927473  0.01324968    -0.31400
C150        C  0.23655107  0.10902642  0.07965181    -0.31700
N151        N  0.22596597  0.14251172  0.07481217     0.13300
H152        H  0.26190211  0.10173402  0.08849999     0.15900
C153        C  0.19318790  0.14152898  0.07298041    -0.31700
H154        H  0.17926203  0.16490230  0.07743032     0.15900
H155        H  0.11154005  0.03701604  0.99118471     0.15900
H156        H  0.21500240  0.51233857  0.19875808     0.16000
H157        H  0.19925052  0.48081647  0.53899666     0.15900
O158        O  0.24625213  0.19965405  0.06249878    -0.82000
C159        C  0.31144663  0.26408886  0.23909693     0.97400
O160        O  0.28797007  0.24441301  0.22179668    -0.71100
O161        O  0.23888045  0.23049457  0.15339356    -0.74700
Al162      Al  0.28096416  0.20887449  0.17411990     1.49000
C163        C  0.22876426  0.25652457  0.12451848     0.92600
O164        O  0.29576350  0.28723305  0.05833458    -0.80900
O165        O  0.34756550  0.24623518  0.07746945    -0.74500
Al166      Al  0.27476496  0.24170877  0.06817734     1.90100
O167        O  0.32351751  0.29618736  0.13613733    -0.73500
O168        O  0.35672933  0.20531315  0.16287601    -0.73400
O169        O  0.33679266  0.26212927  0.22042908    -0.79000
O170        O  0.32089094  0.18357684  0.20364685    -0.77200
O171        O  0.29794378  0.23349314  0.13054306    -1.13400
O172        O  0.26968016  0.16970966  0.12950875    -0.72600
C173        C  0.24805548  0.17187772  0.08922439     0.98200
C174        C  0.31403062  0.30657990  0.09113597     0.94600
Al175      Al  0.33822363  0.25042724  0.14821217     1.55600
O176        O  0.24412327  0.26831088  0.09259441    -0.77200
C177        C  0.34833643  0.18194136  0.19096906     0.98700
C178        C  0.32980691  0.23340929  0.03669649     0.93600
O179        O  0.30553656  0.21513837  0.04133320    -0.82500
C180        C  0.32643049  0.33431852  0.40849742     0.29800
C181        C  0.26916293  0.29770339  0.38906778     0.29800
C182        C  0.31361203  0.32271126  0.35106682    -0.06400
C183        C  0.32639073  0.29852285  0.43690770    -0.07100
C184        C  0.29608501  0.35446984  0.42166213    -0.07000
C185        C  0.28299342  0.30658801  0.34166491    -0.06400
C186        C  0.29762275  0.27995279  0.42410379    -0.07100
C187        C  0.26738782  0.33438803  0.41305640    -0.07000
C188        C  0.27911023  0.28896822  0.29601260    -0.32400
N189        N  0.30725567  0.28830928  0.27955774     0.14100
C190        C  0.32858618  0.30902796  0.31209597    -0.32400
H191        H  0.35357003  0.31164461  0.30918183     0.16000
C192        C  0.30026310  0.24992578  0.45239451    -0.31400
N193        N  0.32854927  0.25039182  0.98757788     0.12800
C194        C  0.34513303  0.27992243  0.47778856    -0.31400
C195        C  0.24154818  0.35758595  0.40527239    -0.31700
N196        N  0.25201830  0.39099959  0.41168606     0.13300
H197        H  0.21663230  0.35129003  0.38844206     0.15900
C198        C  0.28493216  0.38984172  0.41766061    -0.31700
H199        H  0.29903974  0.41272690  0.41210221     0.15900
H200        H  0.36757217  0.28910317  0.50145258     0.15900
H201        H  0.25782543  0.27413150  0.27827603     0.16000
H202        H  0.28039889  0.23187965  0.45261204     0.15900
O203        O  0.23287174  0.44872622  0.42444506    -0.82000
C204        C  0.16542964  0.51081166  0.24913224     0.97400
O205        O  0.18924860  0.49174532  0.26653728    -0.71100
O206        O  0.23948403  0.47828400  0.33437561    -0.74700
Al207      Al  0.19680866  0.45694156  0.31421309     1.49000
C208        C  0.24969224  0.50457158  0.36341871     0.92600
O209        O  0.18385048  0.03608391  0.43192338    -0.80900
O210        O  0.13204257  0.49523184  0.41370520    -0.74500
Al211      Al  0.20437607  0.99074663  0.42027070     1.90100
O212        O  0.15544122  0.04515175  0.35484540    -0.73500
O213        O  0.12151632  0.45409123  0.32778770    -0.73400
O214        O  0.14074923  0.01012059  0.26962482    -0.79000
O215        O  0.15672763  0.43179559  0.28577563    -0.77200
O216        O  0.18044421  0.48210336  0.35853124    -1.13400
O217        O  0.20805793  0.41817167  0.35834517    -0.72600
C218        C  0.23032926  0.42059501  0.39772399     0.98200
C219        C  0.16546300  0.05551851  0.40010065     0.94600
Al220      Al  0.14030041  0.49919448  0.34235497     1.55600
O221        O  0.23382294  0.01740081  0.39409572    -0.77200
C222        C  0.12967081  0.43027812  0.29960147     0.98700
C223        C  0.15013263  0.98255271  0.45402135     0.93600
O224        O  0.17439359  0.96438255  0.44862520    -0.82500
O225        O  0.01497135  0.21910294  0.20571857    -0.82000
C226        C  0.14497928  0.23486458  0.31153382     0.97400
O227        O  0.12072927  0.23502375  0.33286584    -0.71100
O228        O  0.07681506  0.28000435  0.29589501    -0.74700
Al229      Al  0.07466074  0.23156352  0.30553704     1.49000
C230        C  0.06266864  0.29889947  0.25983846     0.92600
O231        O  0.08506654  0.26419977  0.16613094    -0.80900
O232        O  0.08014585  0.16121883  0.19456177    -0.74500
Al233      Al  0.05142362  0.24028519  0.18764225     1.90100
O234        O  0.11583272  0.21729884  0.16884719    -0.73500
O235        O  0.11370130  0.16694939  0.28998593    -0.73400
O236        O  0.14247038  0.22457458  0.26572799    -0.79000
O237        O  0.07367879  0.18355444  0.32531156    -0.77200
O238        O  0.07864035  0.22198679  0.24166424    -1.13400
O239        O  0.02809354  0.23044484  0.28893656    -0.72600
C240        C  0.00722956  0.22268442  0.24878447     0.98200
C241        C  0.10961387  0.24913339  0.15671752     0.94600
Al242      Al  0.11024620  0.19432363  0.23042405     1.55600
O243        O  0.04499046  0.28505246  0.22036021    -0.77200
C244        C  0.09824268  0.16468964  0.32540967     0.98700
C245        C  0.06582894  0.16898029  0.14971971     0.93600
O246        O  0.05394048  0.19984432  0.14082016    -0.82500
O247        O  0.46530547  0.47450793  0.29401249    -0.82000
C248        C  0.33781260  0.49403671  0.18191765     0.97400
O249        O  0.36164089  0.48977140  0.16028524    -0.71100
O250        O  0.40679304  0.03324957  0.19996407    -0.74700
Al251      Al  0.40733111  0.48443215  0.19082501     1.49000
C252        C  0.41852127  0.05286534  0.23726282     0.92600
O253        O  0.39385381  0.01909675  0.33154262    -0.80900
O254        O  0.39543946  0.41623091  0.29869525    -0.74500
Al255      Al  0.42763966  0.99487588  0.30997223     1.90100
O256        O  0.36211624  0.47314446  0.32503695    -0.73500
O257        O  0.36400305  0.42386320  0.20304093    -0.73400
O258        O  0.33900142  0.48437929  0.22758587    -0.79000
O259        O  0.40650534  0.43551095  0.17121929    -0.77200
O260        O  0.40144300  0.47660190  0.25430109    -1.13400
O261        O  0.45368589  0.48183317  0.21015349    -0.72600
C262        C  0.47400252  0.47643222  0.25159387     0.98200
C263        C  0.36959387  0.00399244  0.34129584     0.94600
Al264      Al  0.36802391  0.45117000  0.26291569     1.55600
O265        O  0.43407305  0.03984034  0.27881932    -0.77200
C266        C  0.38049388  0.41866863  0.16953606     0.98700
C267        C  0.41067005  0.42301192  0.34366990     0.93600
O268        O  0.42388279  0.45336169  0.35423741    -0.82500
C269        C  0.08925608  0.38707812  0.31908812    -0.21500
C270        C  0.10760404  0.39970419  0.28452102    -0.09500
C271        C  0.10573651  0.38171984  0.23757945     0.29300
C272        C  0.08702393  0.35090733  0.22666419    -0.21500
C273        C  0.07077363  0.33686537  0.26298193    -0.09500
C274        C  0.07157392  0.35561251  0.30899921     0.29400
F275        F  0.05710026  0.34216835  0.34569981    -0.20000
H276        H  0.09032489  0.40034374  0.35558367     0.17700
H277        H  0.08760826  0.33633313  0.19171447     0.17700
F278        F  0.12284473  0.39319729  0.20302287    -0.20000
C279        C  0.14653064  0.14787380  0.38850043    -0.21500
C280        C  0.11302218  0.14346418  0.36960462    -0.09500
C281        C  0.09739208  0.11380743  0.38345549     0.29300
C282        C  0.11613231  0.08591785  0.40723328    -0.21500
C283        C  0.15022084  0.08735778  0.41519685    -0.09500
C284        C  0.16526539  0.11969773  0.41122611     0.29400
F285        F  0.19803423  0.12189831  0.41939441    -0.20000
H286        H  0.15876405  0.17129497  0.37906067     0.17700
H287        H  0.10409789  0.06094368  0.40958482     0.17700
F288        F  0.06507655  0.10921413  0.36616738    -0.20000
C289        C  0.29203886  0.03979383  0.33493912    -0.21500
C290        C  0.28273695  0.01608451  0.36910053    -0.09500
C291        C  0.30590096  0.50118439  0.40855011     0.29300
C292        C  0.33844214  0.50440027  0.40749449    -0.21500
C293        C  0.34741378  0.02239805  0.36706950    -0.09500
C294        C  0.32493860  0.04433215  0.33588607     0.29400
F295        F  0.33445133  0.06535557  0.30084829    -0.20000
H296        H  0.27411087  0.05289380  0.30611453     0.17700
H297        H  0.35585078  0.48846590  0.43315221     0.17700
F298        F  0.29689622  0.48022489  0.44428213    -0.20000
C299        C  0.38694153  0.41091587  0.41951186    -0.21500
C300        C  0.40500389  0.39841774  0.38423292    -0.09500
C301        C  0.40577031  0.36169844  0.37614335     0.29300
C302        C  0.38439473  0.33945475  0.39514431    -0.21500
C303        C  0.35938437  0.35394729  0.41660373    -0.09500
C304        C  0.36440976  0.38877974  0.43615860     0.29400
F305        F  0.34779843  0.40164299  0.47071571    -0.20000
H306        H  0.38754263  0.43867246  0.42952077     0.17700
H307        H  0.38458169  0.31145792  0.38673736     0.17700
F308        F  0.42434085  0.34791249  0.34491125    -0.20000
C309        C  0.21104870  0.28473729  0.40068124    -0.21500
C310        C  0.23809967  0.27524457  0.38002787    -0.09500
C311        C  0.23539325  0.24413436  0.35004511     0.29300
C312        C  0.20486651  0.23063475  0.32834510    -0.21500
C313        C  0.17697756  0.24583852  0.34030585    -0.09500
C314        C  0.18039736  0.27128512  0.37950361     0.29400
F315        F  0.15415656  0.28463366  0.39519503    -0.20000
H316        H  0.21315491  0.30324297  0.43223903     0.17700
H317        H  0.20298104  0.20865959  0.30156813     0.17700
F318        F  0.26200151  0.22756752  0.34010836    -0.20000
C319        C  0.38945931  0.13846743  0.17356929    -0.21500
C320        C  0.37083661  0.15193830  0.20747405    -0.09500
C321        C  0.37373093  0.13601247  0.25575016     0.29300
C322        C  0.39336976  0.10600271  0.26832954    -0.21500
C323        C  0.40965852  0.09076180  0.23250875    -0.09500
C324        C  0.40827548  0.10798281  0.18552486     0.29400
F325        F  0.42350328  0.09397677  0.14980136    -0.20000
H326        H  0.38798001  0.15040128  0.13634706     0.17700
H327        H  0.39365160  0.09296123  0.30443377     0.17700
F328        F  0.35705051  0.14893505  0.29027266    -0.20000
C329        C  0.36319453  0.33853005  0.08637673    -0.21500
C330        C  0.32902171  0.33906078  0.07826676    -0.09500
C331        C  0.31343841  0.37065923  0.08494971     0.29300
C332        C  0.33166363  0.39891202  0.10915641    -0.21500
C333        C  0.36548450  0.39595102  0.12623269    -0.09500
C334        C  0.38153499  0.36687214  0.11083239     0.29400
F335        F  0.41403932  0.36325845  0.12692876    -0.20000
H336        H  0.37568222  0.31395165  0.08278639     0.17700
H337        H  0.31886673  0.42116817  0.12112643     0.17700
F338        F  0.28068366  0.37168282  0.07840699    -0.20000
C339        C  0.14009639  0.26023313  0.08991196    -0.21500
C340        C  0.13386407  0.26904589  0.13798223    -0.09500
C341        C  0.15808252  0.28463805  0.17559778     0.29300
C342        C  0.18987556  0.28439055  0.16904685    -0.21500
C343        C  0.19680186  0.27024581  0.12399557    -0.09500
C344        C  0.17174820  0.26110238  0.08262578     0.29400
F345        F  0.17841155  0.24767427  0.03850530    -0.20000
H346        H  0.12141057  0.24860989  0.06050385     0.17700
H347        H  0.20925268  0.29167487  0.20088181     0.17700
F348        F  0.15200604  0.29381003  0.22206974    -0.20000
C349        C  0.11441981  0.13786357  0.05903300    -0.21500
C350        C  0.11890014  0.10269378  0.07568520    -0.09500
C351        C  0.09317931  0.08710918  0.09413734     0.29300
C352        C  0.07121728  0.10870208  0.11334233    -0.21500
C353        C  0.07199776  0.14554111  0.10777169    -0.09500
C354        C  0.09078232  0.15909910  0.07445926     0.29400
F355        F  0.08973643  0.19397263  0.06326951    -0.20000
H356        H  0.13017992  0.14970640  0.03684704     0.17700
H357        H  0.05584997  0.09703904  0.13664631     0.17700
F358        F  0.09185882  0.05157807  0.09987039    -0.20000
C359        C  0.25926701  0.01267997  0.08855451    -0.21500
C360        C  0.24488571  0.03590898  0.11888863    -0.09500
C361        C  0.26470709  0.05029054  0.16380471     0.29300
C362        C  0.29536252  0.03723065  0.18201423    -0.21500
C363        C  0.30812509  0.01107130  0.15522315    -0.09500
C364        C  0.29086594  0.50018268  0.10669652     0.29400
F365        F  0.30406843  0.47718768  0.07756008    -0.20000
H366        H  0.24680681  0.50489435  0.05061961     0.17700
H367        H  0.30919558  0.04738627  0.21772551     0.17700
F368        F  0.25444484  0.07713694  0.19064244    -0.20000
C369        C  0.91119163  0.35548776  0.18657996    -0.21500
C370        C  0.91225995  0.33919778  0.23407105    -0.09500
C371        C  0.89545642  0.35509527  0.26883017     0.29300
C372        C  0.87553825  0.38454730  0.25422069    -0.21500
C373        C  0.87305687  0.39953269  0.20555804    -0.09500
C374        C  0.89227369  0.38564931  0.17270146     0.29400
F375        F  0.89079499  0.39947929  0.12542567    -0.20000
H376        H  0.92330177  0.34336332  0.15870896     0.17700
H377        H  0.86148431  0.39519602  0.28054628     0.17700
F378        F  0.89579575  0.34027459  0.31506086    -0.20000
C379        C  0.80876711  0.11754374  0.09136173    -0.21500
C380        C  0.82659683  0.08903672  0.07899687    -0.09500
C381        C  0.86046556  0.09257536  0.08432969     0.29300
C382        C  0.87662477  0.12156303  0.11034234    -0.21500
C383        C  0.85912982  0.14630459  0.13237988    -0.09500
C384        C  0.82486415  0.14556076  0.11962847     0.29400
F385        F  0.80688464  0.16921085  0.14024695    -0.20000
H386        H  0.78282849  0.11508256  0.08811937     0.17700
H387        H  0.90285564  0.12189326  0.11940302     0.17700
F388        F  0.87864032  0.06464405  0.07549022    -0.20000
C389        C  0.67445046  0.50915857  0.08473637    -0.21500
C390        C  0.69973137  0.51879651  0.12534245    -0.09500
C391        C  0.69320979  0.03226337  0.17111205     0.29300
C392        C  0.66183009  0.03071258  0.17919121    -0.21500
C393        C  0.63761378  0.01486543  0.14201790    -0.09500
C394        C  0.64315988  0.50679393  0.09326308     0.29400
F395        F  0.61948770  0.49229655  0.05668100    -0.20000
H396        H  0.67954198  0.49885851  0.04914541     0.17700
H397        H  0.65749276  0.03703287  0.21696604     0.17700
F398        F  0.71762339  0.04258996  0.20992454    -0.20000
C399        C  0.59471077  0.33633753  0.09862658    -0.21500
C400        C  0.61907918  0.35212261  0.07725904    -0.09500
C401        C  0.61322690  0.38705125  0.05962141     0.29300
C402        C  0.59051817  0.40810132  0.07794364    -0.21500
C403        C  0.57309543  0.39433517  0.11297799    -0.09500
C404        C  0.57297751  0.35750046  0.11901525     0.29400
F405        F  0.55467298  0.34259772  0.14946969    -0.20000
H406        H  0.59551202  0.30828134  0.10627189     0.17700
H407        H  0.58945263  0.43604084  0.06962994     0.17700
F408        F  0.62951950  0.40116876  0.02584498    -0.20000
C409        C  0.76001498  0.26225311  0.09210739    -0.21500
C410        C  0.74580126  0.28766372  0.11918010    -0.09500
C411        C  0.76573331  0.30479655  0.16187911     0.29300
C412        C  0.79621345  0.29209678  0.18234864    -0.21500
C413        C  0.80855831  0.26375822  0.15923264    -0.09500
C414        C  0.79152220  0.25045921  0.11191306     0.29400
F415        F  0.80494624  0.22580793  0.08553102    -0.20000
H416        H  0.74759939  0.25223244  0.05540306     0.17700
H417        H  0.81017319  0.30427830  0.21674310     0.17700
F418        F  0.75548346  0.33371618  0.18459382    -0.20000
C419        C  0.61176414  0.13296364  0.23856770    -0.21500
C420        C  0.61276836  0.15094586  0.28518891    -0.09500
C421        C  0.59321477  0.13859867  0.31836104     0.29300
C422        C  0.57531500  0.10742279  0.30700290    -0.21500
C423        C  0.57556790  0.08839545  0.26172274    -0.09500
C424        C  0.59294685  0.10223974  0.22650553     0.29400
F425        F  0.59409892  0.08446881  0.18254688    -0.20000
H426        H  0.62620801  0.14217041  0.21209211     0.17700
H427        H  0.56276513  0.09689470  0.33520502     0.17700
F428        F  0.59335095  0.15506663  0.36387264    -0.20000
C429        C  0.61608050  0.33359303  0.40592542    -0.21500
C430        C  0.65019348  0.33660769  0.41727584    -0.09500
C431        C  0.66410812  0.37005369  0.41765307     0.29300
C432        C  0.64467145  0.39851430  0.39720720    -0.21500
C433        C  0.61149554  0.39347223  0.37581700    -0.09500
C434        C  0.59671039  0.36182899  0.38451313     0.29400
F435        F  0.56477385  0.35636782  0.36472747    -0.20000
H436        H  0.60479419  0.30787126  0.40499176     0.17700
H437        H  0.65637265  0.42314402  0.39124668     0.17700
F438        F  0.69678654  0.37385046  0.42884693    -0.20000
C439        C  0.80990810  0.25904445  0.41677274    -0.21500
C440        C  0.78614245  0.27027232  0.37526510    -0.09500
C441        C  0.79449863  0.29055542  0.33643279     0.29300
C442        C  0.82710329  0.29525898  0.33574661    -0.21500
C443        C  0.85047867  0.27673420  0.37072576    -0.09500
C444        C  0.84235014  0.26231940  0.41458315     0.29400
F445        F  0.86498428  0.24531178  0.44966537    -0.20000
H446        H  0.80333940  0.24407505  0.44760758     0.17700
H447        H  0.83355958  0.30727506  0.30253408     0.17700
F448        F  0.77142501  0.30247568  0.29695614    -0.20000
C449        C  0.88715432  0.08738882  0.39463547    -0.21500
C450        C  0.86235917  0.10100051  0.41739210    -0.09500
C451        C  0.86762987  0.13507081  0.43943974     0.29300
C452        C  0.88965881  0.15808059  0.42342330    -0.21500
C453        C  0.90701403  0.14697442  0.38646979    -0.09500
C454        C  0.90814299  0.11052747  0.37638917     0.29400
F455        F  0.92640971  0.09807449  0.34376313    -0.20000
H456        H  0.88752369  0.05961430  0.38498697     0.17700
H457        H  0.88997291  0.18559154  0.43479812     0.17700
F458        F  0.85143881  0.14640603  0.47545427    -0.20000
C459        C  0.68303712  0.01859531  0.38463180    -0.21500
C460        C  0.67920848  0.99400113  0.34429602    -0.09500
C461        C  0.70701065  0.47962418  0.33058600     0.29300
C462        C  0.73734740  0.49366977  0.35149915    -0.21500
C463        C  0.74011354  0.02449344  0.38176622    -0.09500
C464        C  0.71360222  0.03289018  0.40467645     0.29400
F465        F  0.71722587  0.05334911  0.44752598    -0.20000
H466        H  0.66237985  0.02746613  0.39961599     0.17700
H467        H  0.75846914  0.48162904  0.34144923     0.17700
F468        F  0.70489887  0.45261016  0.29619718    -0.20000
C469        C  0.82922727  0.08189562  0.90844628     0.29800
C470        C  0.77137389  0.04648121  0.88966173     0.29800
C471        C  0.81644577  0.06979533  0.85112441    -0.06400
C472        C  0.82855819  0.04644115  0.93737713    -0.07100
C473        C  0.79908608  0.10297928  0.92100137    -0.07000
C474        C  0.78574123  0.05374546  0.84208589    -0.06400
C475        C  0.79941802  0.02862290  0.92516289    -0.07100
C476        C  0.77015393  0.08361841  0.91235977    -0.07000
C477        C  0.78240051  0.03468548  0.79753751    -0.32400
N478        N  0.81038119  0.03427752  0.78061526     0.14100
C479        C  0.83146385  0.05573797  0.81234481    -0.32400
H480        H  0.85625171  0.05897055  0.80869691     0.16000
C481        C  0.80195283  0.99806131  0.95211398    -0.31400
N482        N  0.83061798  0.99750183  0.48630582     0.12800
C483        C  0.84772209  0.02652273  0.97620676    -0.31400
C484        C  0.74469059  0.10730654  0.90567415    -0.31700
N485        N  0.75567268  0.14060339  0.91352217     0.13300
H486        H  0.71959407  0.10120529  0.88961357     0.15900
C487        C  0.78862550  0.13871064  0.91901305    -0.31700
H488        H  0.80330027  0.16152385  0.91514391     0.15900
H489        H  0.87140601  0.03385989  0.99745157     0.15900
H490        H  0.76145839  0.51931614  0.78024958     0.16000
H491        H  0.78193381  0.48018689  0.95214176     0.15900
O492        O  0.73581390  0.19807509  0.92897913    -0.82000
C493        C  0.66982749  0.26299594  0.75253271     0.97400
O494        O  0.69440195  0.24527931  0.77095112    -0.71100
O495        O  0.74400794  0.23115669  0.83971374    -0.74700
Al496      Al  0.70178108  0.20928833  0.81735753     1.49000
C497        C  0.75381956  0.25652866  0.87075890     0.92600
O498        O  0.68589215  0.28639151  0.93590602    -0.80900
O499        O  0.63465678  0.24567236  0.91484648    -0.74500
Al500      Al  0.70720965  0.24065253  0.92495672     1.90100
O501        O  0.65951275  0.29575991  0.85760682    -0.73500
O502        O  0.62613756  0.20496600  0.82915826    -0.73400
O503        O  0.64495229  0.26085170  0.77214037    -0.79000
O504        O  0.66187584  0.18375195  0.78710971    -0.77200
O505        O  0.68449037  0.23298933  0.86194838    -1.13400
O506        O  0.71315139  0.16955544  0.85948027    -0.72600
C507        C  0.73434070  0.17081272  0.90027321     0.98200
C508        C  0.66781817  0.30585850  0.90328286     0.94600
Al509      Al  0.64426259  0.24989091  0.84446320     1.55600
O510        O  0.73789038  0.26755129  0.90250914    -0.77200
C511        C  0.63471488  0.18158481  0.80076233     0.98700
C512        C  0.65181936  0.23234972  0.95538876     0.93600
O513        O  0.67611882  0.21398796  0.95062992    -0.82500
C514        C  0.65257948  0.33405199  0.58448716     0.29800
C515        C  0.71112574  0.30065635  0.60251275     0.29800
C516        C  0.66557311  0.32230673  0.64142935    -0.06400
C517        C  0.65413871  0.29829158  0.55457864    -0.07100
C518        C  0.68217865  0.35579011  0.57186004    -0.07000
C519        C  0.69586975  0.30627901  0.64893804    -0.06400
C520        C  0.68385911  0.28077593  0.56669038    -0.07100
C521        C  0.71069927  0.33653495  0.57777993    -0.07000
C522        C  0.69900027  0.28434006  0.68984972    -0.32400
N523        N  0.67220962  0.28529260  0.70967158     0.14100
C524        C  0.65117350  0.30796143  0.68046958    -0.32400
H525        H  0.62679879  0.31208634  0.68588745     0.16000
C526        C  0.68095362  0.24960547  0.53997832    -0.31400
N527        N  0.65259530  0.24922920  0.00489013     0.12800
C528        C  0.63549861  0.27854173  0.51453551    -0.31400
C529        C  0.73615426  0.35829443  0.57457141    -0.31700
N530        N  0.72605935  0.39186487  0.57244395     0.13300
H531        H  0.76142329  0.35070535  0.58146274     0.15900
C532        C  0.69361172  0.39111138  0.57338655    -0.31700
H533        H  0.68036417  0.41431686  0.58108307     0.15900
H534        H  0.61263528  0.28674270  0.49126649     0.15900
H535        H  0.71872628  0.26580949  0.70113736     0.16000
H536        H  0.69985486  0.23024626  0.04119037     0.15900
O537        O  0.74777574  0.44820913  0.56099786    -0.82000
C538        C  0.81433048  0.51062392  0.73923388     0.97400
O539        O  0.79093332  0.49081617  0.72197018    -0.71100
O540        O  0.74144499  0.47861295  0.65346452    -0.74700
Al541      Al  0.78306686  0.45611119  0.67286566     1.49000
C542        C  0.73135905  0.50473333  0.62476194     0.92600
O543        O  0.79746907  0.03488224  0.55762962    -0.80900
O544        O  0.84945744  0.49386822  0.57621307    -0.74500
Al545      Al  0.77670023  0.98956373  0.56729120     1.90100
O546        O  0.82592199  0.04371926  0.63514061    -0.73500
O547        O  0.85890059  0.45296921  0.66146814    -0.73400
O548        O  0.83925417  0.00953374  0.71947333    -0.79000
O549        O  0.82272057  0.43015114  0.70067653    -0.77200
O550        O  0.79998910  0.48107783  0.62953528    -1.13400
O551        O  0.77065998  0.41749721  0.62737419    -0.72600
C552        C  0.74889268  0.42045217  0.58738639     0.98200
C553        C  0.81515120  0.05449201  0.59064374     0.94600
Al554      Al  0.84037468  0.49796081  0.64702625     1.55600
O555        O  0.74628533  0.01619801  0.59208877    -0.77200
C556        C  0.85034378  0.42912437  0.68859277     0.98700
C557        C  0.83173409  0.98085912  0.53556870     0.93600
O558        O  0.80734268  0.96280917  0.54026951    -0.82500
O559        O  0.51679932  0.47150433  0.70802068    -0.82000
C560        C  0.64682969  0.48353297  0.81609271     0.97400
O561        O  0.62242496  0.48603535  0.83687645    -0.71100
O562        O  0.57997295  0.03189051  0.79661219    -0.74700
Al563      Al  0.57629651  0.48371956  0.80882638     1.49000
C564        C  0.56676470  0.05049531  0.75952059     0.92600
O565        O  0.58867727  0.01218173  0.66915373    -0.80900
O566        O  0.58013368  0.41035679  0.69979590    -0.74500
Al567      Al  0.55413427  0.99050855  0.69032656     1.90100
O568        O  0.61836791  0.46429785  0.67430280    -0.73500
O569        O  0.61277601  0.41614798  0.79591498    -0.73400
O570        O  0.64408082  0.47181663  0.77100354    -0.79000
O571        O  0.57421327  0.43631000  0.83196932    -0.77200
O572        O  0.58033136  0.47210071  0.74554100    -1.13400
O573        O  0.52937081  0.48387578  0.79105978    -0.72600
C574        C  0.50862847  0.47610529  0.75058332     0.98200
C575        C  0.61297442  0.99604579  0.66101469     0.94600
Al576      Al  0.61107470  0.44263445  0.73587780     1.55600
O577        O  0.54871676  0.03638433  0.72069424    -0.77200
C578        C  0.59754974  0.41553624  0.83175246     0.98700
C579        C  0.56678944  0.41814664  0.65447088     0.93600
O580        O  0.55585199  0.44928101  0.64481926    -0.82500
O581        O  0.96511719  0.22161800  0.79421196    -0.82000
C582        C  0.83780553  0.24715176  0.68748075     0.97400
O583        O  0.86093385  0.24061031  0.66528037    -0.71100
O584        O  0.90820097  0.28170507  0.70210992    -0.74700
Al585      Al  0.90614529  0.23292291  0.69379386     1.49000
C586        C  0.92052154  0.30122142  0.73921173     0.92600
O587        O  0.89715137  0.26944332  0.83671684    -0.78900
O588        O  0.89220092  0.16708066  0.80256484    -0.74500
Al589      Al  0.92897578  0.24357505  0.81248363     1.90100
O590        O  0.86323595  0.22571672  0.83132692    -0.73500
O591        O  0.85961008  0.17637188  0.70839927    -0.73400
O592        O  0.83910918  0.23907685  0.73390616    -0.79000
O593        O  0.90235385  0.18387578  0.67547916    -0.77200
O594        O  0.90103423  0.22648807  0.75801052    -1.13400
O595        O  0.95211049  0.22799409  0.71039820    -0.72600
C596        C  0.97292518  0.22272626  0.75111660     0.98200
C597        C  0.87222638  0.25620504  0.84684960     0.94600
Al598      Al  0.86651172  0.20370465  0.76827703     1.55600
O599        O  0.93591326  0.28814117  0.78084450    -0.77200
C600        C  0.87528272  0.16931068  0.67447259     0.98700
C601        C  0.91022737  0.17255528  0.84600953     0.93600
O602        O  0.92492582  0.20213964  0.85625248    -0.82500
C603        C  0.15218581  0.08424466  0.58371625     0.29800
C604        C  0.21052458  0.05017741  0.60271620     0.29800
C605        C  0.16421556  0.07138586  0.64033737    -0.06400
C606        C  0.15397535  0.04918146  0.55256387    -0.07100
C607        C  0.18233153  0.10610521  0.57341774    -0.07000
C608        C  0.19422174  0.05458458  0.64829715    -0.06400
C609        C  0.18358360  0.03149384  0.56463269    -0.07100
C610        C  0.21096018  0.08694516  0.58094578    -0.07000
C611        C  0.19586577  0.03158797  0.68769462    -0.32400
N612        N  0.16874919  0.03321699  0.70681005     0.14100
C613        C  0.14888048  0.05727159  0.67838673    -0.32400
H614        H  0.12467529  0.06272464  0.68368141     0.16000
C615        C  0.18046326  0.00036491  0.53776984    -0.31400
N616        N  0.15179101  0.99992210  0.00336109     0.12800
C617        C  0.13489844  0.02927477  0.51324957    -0.31400
C618        C  0.23655106  0.10902643  0.57965184    -0.31700
N619        N  0.22596593  0.14251173  0.57481216     0.13300
H620        H  0.26190208  0.10173404  0.58850004     0.15900
C621        C  0.19318786  0.14152897  0.57298041    -0.31700
H622        H  0.17926196  0.16490226  0.57743032     0.15900
H623        H  0.11154008  0.03701609  0.49118452     0.15900
H624        H  0.21500241  0.51233867  0.69875811     0.16000
H625        H  0.19925056  0.48081652  0.03899677     0.15900
O626        O  0.24625215  0.19965405  0.56249877    -0.82000
C627        C  0.31144657  0.26408889  0.73909694     0.97400
O628        O  0.28797005  0.24441301  0.72179669    -0.71100
O629        O  0.23888045  0.23049458  0.65339344    -0.74700
Al630      Al  0.28096416  0.20887450  0.67411989     1.49000
C631        C  0.22876425  0.25652460  0.62451839     0.92600
O632        O  0.29576343  0.28723311  0.55833449    -0.80900
O633        O  0.34756544  0.24623523  0.57746948    -0.74500
Al634      Al  0.27476495  0.24170879  0.56817732     1.90100
O635        O  0.32351743  0.29618738  0.63613726    -0.73500
O636        O  0.35672930  0.20531317  0.66287602    -0.73400
O637        O  0.33679262  0.26212935  0.72042910    -0.79000
O638        O  0.32089095  0.18357684  0.70364692    -0.77200
O639        O  0.29794376  0.23349315  0.63054304    -1.13400
O640        O  0.26968011  0.16970967  0.62950881    -0.72600
C641        C  0.24805544  0.17187774  0.58922443     0.98200
C642        C  0.31403061  0.30657991  0.59113588     0.94600
Al643      Al  0.33822358  0.25042728  0.64821216     1.55600
O644        O  0.24412330  0.26831095  0.59259439    -0.77200
C645        C  0.34833641  0.18194135  0.69096908     0.98700
C646        C  0.32980687  0.23340930  0.53669651     0.93600
O647        O  0.30553653  0.21513837  0.54133320    -0.82500
C648        C  0.32643049  0.33431852  0.90849739     0.29800
C649        C  0.26916291  0.29770338  0.88906780     0.29800
C650        C  0.31361198  0.32271130  0.85106679    -0.06400
C651        C  0.32639076  0.29852282  0.93690760    -0.07100
C652        C  0.29608501  0.35446980  0.92166217    -0.07000
C653        C  0.28299337  0.30658804  0.84166492    -0.06400
C654        C  0.29762276  0.27995280  0.92410378    -0.07100
C655        C  0.26738782  0.33438800  0.91305643    -0.07000
C656        C  0.27911013  0.28896823  0.79601260    -0.32400
N657        N  0.30725559  0.28830931  0.77955774     0.14100
C658        C  0.32858610  0.30902797  0.81209595    -0.32400
H659        H  0.35356997  0.31164460  0.80918179     0.16000
C660        C  0.30026310  0.24992583  0.95239458    -0.31400
N661        N  0.32854925  0.25039180  0.48757790     0.12800
C662        C  0.34513309  0.27992244  0.97778851    -0.31400
C663        C  0.24154816  0.35758589  0.90527245    -0.31700
N664        N  0.25201828  0.39099955  0.91168609     0.13300
H665        H  0.21663233  0.35128996  0.88844214     0.15900
C666        C  0.28493211  0.38984164  0.91766061    -0.31700
H667        H  0.29903971  0.41272689  0.91210211     0.15900
H668        H  0.36757214  0.28910321  0.00145245     0.15900
H669        H  0.25782538  0.27413151  0.77827614     0.16000
H670        H  0.28039888  0.23187973  0.95261218     0.15900
O671        O  0.23287178  0.44872626  0.92444493    -0.82000
C672        C  0.16542967  0.51081169  0.74913226     0.97400
O673        O  0.18924860  0.49174536  0.76653731    -0.71100
O674        O  0.23948394  0.47828403  0.83437563    -0.74700
Al675      Al  0.19680861  0.45694157  0.81421308     1.49000
C676        C  0.24969215  0.50457161  0.86341873     0.92600
O677        O  0.18385040  0.03608385  0.93192338    -0.80900
O678        O  0.13204261  0.49523182  0.91370522    -0.74500
Al679      Al  0.20437608  0.99074664  0.92027073     1.90100
O680        O  0.15544114  0.04515176  0.85484542    -0.73500
O681        O  0.12151632  0.45409127  0.82778776    -0.73400
O682        O  0.14074926  0.01012064  0.76962483    -0.79000
O683        O  0.15672757  0.43179561  0.78577558    -0.77200
O684        O  0.18044419  0.48210337  0.85853125    -1.13400
O685        O  0.20805791  0.41817165  0.85834512    -0.72600
C686        C  0.23032925  0.42059498  0.89772395     0.98200
C687        C  0.16546295  0.05551848  0.90010069     0.94600
Al688      Al  0.14030043  0.49919451  0.84235498     1.55600
O689        O  0.23382302  0.01740084  0.89409575    -0.77200
C690        C  0.12967077  0.43027816  0.79960147     0.98700
C691        C  0.15013256  0.98255270  0.95402140     0.93600
O692        O  0.17439353  0.96438256  0.94862522    -0.82500
O693        O  0.01497140  0.21910299  0.70571859    -0.82000
C694        C  0.14497927  0.23486460  0.81153383     0.97400
O695        O  0.12072925  0.23502372  0.83286583    -0.71100
O696        O  0.07681504  0.28000432  0.79589510    -0.74700
Al697      Al  0.07466073  0.23156348  0.80553706     1.49000
C698        C  0.06266871  0.29889946  0.75983850     0.92600
O699        O  0.08506658  0.26419977  0.66613098    -0.80900
O700        O  0.08014584  0.16121888  0.69456182    -0.74500
Al701      Al  0.05142366  0.24028521  0.68764228     1.90100
O702        O  0.11583279  0.21729887  0.66884720    -0.73500
O703        O  0.11370133  0.16694942  0.78998591    -0.73400
O704        O  0.14247041  0.22457460  0.76572802    -0.79000
O705        O  0.07367878  0.18355435  0.82531152    -0.77200
O706        O  0.07864038  0.22198678  0.74166426    -1.13400
O707        O  0.02809357  0.23044482  0.78893659    -0.72600
C708        C  0.00722960  0.22268445  0.74878448     0.98200
C709        C  0.10961387  0.24913339  0.65671743     0.94600
Al710      Al  0.11024623  0.19432364  0.73042406     1.55600
O711        O  0.04499057  0.28505249  0.72036019    -0.77200
C712        C  0.09824267  0.16468957  0.82540959     0.98700
C713        C  0.06582895  0.16898032  0.64971974     0.93600
O714        O  0.05394046  0.19984434  0.64082017    -0.82500
O715        O  0.46530546  0.47450794  0.79401247    -0.82000
C716        C  0.33781256  0.49403673  0.68191761     0.97400
O717        O  0.36164086  0.48977144  0.66028521    -0.71100
O718        O  0.40679299  0.03324960  0.69996411    -0.74700
Al719      Al  0.40733110  0.48443214  0.69082498     1.49000
C720        C  0.41852130  0.05286535  0.73726284     0.92600
O721        O  0.39385383  0.01909677  0.83154263    -0.80900
O722        O  0.39543956  0.41623091  0.79869524    -0.74500
Al723      Al  0.42763967  0.99487586  0.80997223     1.90100
O724        O  0.36211622  0.47314441  0.82503691    -0.73500
O725        O  0.36400308  0.42386314  0.70304099    -0.73400
O726        O  0.33900139  0.48437926  0.72758580    -0.79000
O727        O  0.40650531  0.43551097  0.67121925    -0.77200
O728        O  0.40144302  0.47660188  0.75430109    -1.13400
O729        O  0.45368588  0.48183318  0.71015344    -0.72600
C730        C  0.47400252  0.47643223  0.75159382     0.98200
C731        C  0.36959389  0.00399246  0.84129584     0.94600
Al732      Al  0.36802394  0.45116997  0.76291567     1.55600
O733        O  0.43407304  0.03984032  0.77881935    -0.77200
C734        C  0.38049388  0.41866860  0.66953611     0.98700
C735        C  0.41067009  0.42301194  0.84366992     0.93600
O736        O  0.42388277  0.45336173  0.85423748    -0.82500
C737        C  0.08925611  0.38707808  0.81908823    -0.21500
C738        C  0.10760397  0.39970424  0.78452104    -0.09500
C739        C  0.10573641  0.38171991  0.73757944     0.29300
C740        C  0.08702388  0.35090738  0.72666421    -0.21500
C741        C  0.07077368  0.33686536  0.76298201    -0.09500
C742        C  0.07157396  0.35561245  0.80899931     0.29400
F743        F  0.05710022  0.34216821  0.84569977    -0.20000
H744        H  0.09032496  0.40034369  0.85558381     0.17700
H745        H  0.08760820  0.33633317  0.69171445     0.17700
F746        F  0.12284462  0.39319733  0.70302286    -0.20000
C747        C  0.14653067  0.14787379  0.88850035    -0.21500
C748        C  0.11302220  0.14346413  0.86960451    -0.09500
C749        C  0.09739206  0.11380745  0.88345549     0.29300
C750        C  0.11613231  0.08591790  0.90723331    -0.21500
C751        C  0.15022085  0.08735780  0.91519690    -0.09500
C752        C  0.16526545  0.11969775  0.91122611     0.29400
F753        F  0.19803431  0.12189832  0.91939443    -0.20000
H754        H  0.15876408  0.17129498  0.87906057     0.17700
H755        H  0.10409786  0.06094373  0.90958488     0.17700
F756        F  0.06507651  0.10921416  0.86616744    -0.20000
C757        C  0.29203887  0.03979384  0.83493912    -0.21500
C758        C  0.28273700  0.01608452  0.86910056    -0.09500
C759        C  0.30590090  0.50118439  0.90855017     0.29300
C760        C  0.33844211  0.50440019  0.90749457    -0.21500
C761        C  0.34741380  0.02239806  0.86706950    -0.09500
C762        C  0.32493860  0.04433218  0.83588610     0.29400
F763        F  0.33445125  0.06535561  0.80084828    -0.20000
H764        H  0.27411089  0.05289376  0.80611452     0.17700
H765        H  0.35585069  0.48846585  0.93315225     0.17700
F766        F  0.29689612  0.48022491  0.94428217    -0.20000
C767        C  0.38694157  0.41091588  0.91951193    -0.21500
C768        C  0.40500389  0.39841775  0.88423292    -0.09500
C769        C  0.40577033  0.36169845  0.87614337     0.29300
C770        C  0.38439471  0.33945478  0.89514427    -0.21500
C771        C  0.35938436  0.35394733  0.91660370    -0.09500
C772        C  0.36440977  0.38877977  0.93615867     0.29400
F773        F  0.34779837  0.40164302  0.97071570    -0.20000
H774        H  0.38754271  0.43867247  0.92952085     0.17700
H775        H  0.38458163  0.31145796  0.88673731     0.17700
F776        F  0.42434093  0.34791252  0.84491133    -0.20000
C777        C  0.21104865  0.28473729  0.90068132    -0.21500
C778        C  0.23809963  0.27524457  0.88002788    -0.09500
C779        C  0.23539320  0.24413434  0.85004511     0.29300
C780        C  0.20486645  0.23063476  0.82834510    -0.21500
C781        C  0.17697752  0.24583852  0.84030589    -0.09500
C782        C  0.18039731  0.27128506  0.87950372     0.29400
F783        F  0.15415650  0.28463364  0.89519503    -0.20000
H784        H  0.21315486  0.30324294  0.93223903     0.17700
H785        H  0.20298096  0.20865960  0.80156812     0.17700
F786        F  0.26200139  0.22756735  0.84010842    -0.20000
C787        C  0.38945927  0.13846741  0.67356928    -0.21500
C788        C  0.37083658  0.15193827  0.70747404    -0.09500
C789        C  0.37373094  0.13601243  0.75575015     0.29300
C790        C  0.39336985  0.10600273  0.76832958    -0.21500
C791        C  0.40965862  0.09076185  0.73250881    -0.09500
C792        C  0.40827552  0.10798285  0.68552490     0.29400
F793        F  0.42350321  0.09397677  0.64980131    -0.20000
H794        H  0.38797993  0.15040121  0.63634701     0.17700
H795        H  0.39365173  0.09296127  0.80443384     0.17700
F796        F  0.35705060  0.14893508  0.79027272    -0.20000
C797        C  0.36319454  0.33853008  0.58637674    -0.21500
C798        C  0.32902173  0.33906080  0.57826672    -0.09500
C799        C  0.31343845  0.37065925  0.58494970     0.29300
C800        C  0.33166362  0.39891208  0.60915648    -0.21500
C801        C  0.36548450  0.39595103  0.62623271    -0.09500
C802        C  0.38153498  0.36687217  0.61083236     0.29400
F803        F  0.41403929  0.36325846  0.62692881    -0.20000
H804        H  0.37568226  0.31395163  0.58278641     0.17700
H805        H  0.31886677  0.42116806  0.62112656     0.17700
F806        F  0.28068373  0.37168284  0.57840700    -0.20000
C807        C  0.14009638  0.26023314  0.58991189    -0.21500
C808        C  0.13386400  0.26904593  0.63798210    -0.09500
C809        C  0.15808243  0.28463810  0.67559768     0.29300
C810        C  0.18987545  0.28439060  0.66904667    -0.21500
C811        C  0.19680182  0.27024584  0.62399546    -0.09500
C812        C  0.17174816  0.26110239  0.58262569     0.29400
F813        F  0.17841148  0.24767427  0.53850524    -0.20000
H814        H  0.12141057  0.24860985  0.56050366     0.17700
H815        H  0.20925261  0.29167494  0.70088170     0.17700
F816        F  0.15200593  0.29381003  0.72206966    -0.20000
C817        C  0.11441982  0.13786357  0.55903299    -0.21500
C818        C  0.11890015  0.10269381  0.57568526    -0.09500
C819        C  0.09317931  0.08710920  0.59413735     0.29300
C820        C  0.07121725  0.10870210  0.61334233    -0.21500
C821        C  0.07199781  0.14554116  0.60777173    -0.09500
C822        C  0.09078238  0.15909913  0.57445930     0.29400
F823        F  0.08973655  0.19397266  0.56326954    -0.20000
H824        H  0.13017994  0.14970639  0.53684699     0.17700
H825        H  0.05584996  0.09703912  0.63664627     0.17700
F826        F  0.09185890  0.05157810  0.59987043    -0.20000
C827        C  0.25926696  0.01267991  0.58855447    -0.21500
C828        C  0.24488569  0.03590895  0.61888860    -0.09500
C829        C  0.26470711  0.05029058  0.66380459     0.29300
C830        C  0.29536252  0.03723065  0.68201425    -0.21500
C831        C  0.30812507  0.01107127  0.65522317    -0.09500
C832        C  0.29086596  0.50018266  0.60669646     0.29400
F833        F  0.30406848  0.47718755  0.57756016    -0.20000
H834        H  0.24680682  0.50489434  0.55061962     0.17700
H835        H  0.30919550  0.04738624  0.71772540     0.17700
F836        F  0.25444492  0.07713697  0.69064238    -0.20000
C837        C  0.91119173  0.35548780  0.68658002    -0.21500
C838        C  0.91226001  0.33919777  0.73407108    -0.09500
C839        C  0.89545650  0.35509532  0.76883022     0.29300
C840        C  0.87553832  0.38454732  0.75422067    -0.21500
C841        C  0.87305685  0.39953269  0.70555802    -0.09500
C842        C  0.89227376  0.38564934  0.67270148     0.29400
F843        F  0.89079510  0.39947933  0.62542571    -0.20000
H844        H  0.92330188  0.34336336  0.65870901     0.17700
H845        H  0.86148434  0.39519603  0.78054633     0.17700
F846        F  0.89579567  0.34027461  0.81506083    -0.20000
C847        C  0.80876714  0.11754376  0.59136174    -0.21500
C848        C  0.82659687  0.08903674  0.57899690    -0.09500
C849        C  0.86046562  0.09257537  0.58432972     0.29300
C850        C  0.87662481  0.12156305  0.61034237    -0.21500
C851        C  0.85912980  0.14630459  0.63237989    -0.09500
C852        C  0.82486415  0.14556078  0.61962845     0.29400
F853        F  0.80688459  0.16921085  0.64024695    -0.20000
H854        H  0.78282855  0.11508257  0.58811942     0.17700
H855        H  0.90285569  0.12189331  0.61940314     0.17700
F856        F  0.87864042  0.06464408  0.57549024    -0.20000
C857        C  0.67445049  0.50915858  0.58473636    -0.21500
C858        C  0.69973142  0.51879654  0.62534245    -0.09500
C859        C  0.69320975  0.03226339  0.67111207     0.29300
C860        C  0.66183006  0.03071262  0.67919120    -0.21500
C861        C  0.63761375  0.01486550  0.64201787    -0.09500
C862        C  0.64315989  0.50679397  0.59326306     0.29400
F863        F  0.61948764  0.49229660  0.55668105    -0.20000
H864        H  0.67954201  0.49885851  0.54914541     0.17700
H865        H  0.65749273  0.03703291  0.71696601     0.17700
F866        F  0.71762333  0.04258999  0.70992459    -0.20000
C867        C  0.59471076  0.33633755  0.59862661    -0.21500
C868        C  0.61907914  0.35212265  0.57725905    -0.09500
C869        C  0.61322681  0.38705128  0.55962142     0.29300
C870        C  0.59051806  0.40810133  0.57794363    -0.21500
C871        C  0.57309535  0.39433516  0.61297797    -0.09500
C872        C  0.57297748  0.35750046  0.61901524     0.29400
F873        F  0.55467304  0.34259771  0.64946978    -0.20000
H874        H  0.59551205  0.30828138  0.60627195     0.17700
H875        H  0.58945251  0.43604086  0.56962994     0.17700
F876        F  0.62951939  0.40116880  0.52584499    -0.20000
C877        C  0.76001506  0.26225315  0.59210732    -0.21500
C878        C  0.74580131  0.28766376  0.61918004    -0.09500
C879        C  0.76573334  0.30479655  0.66187911     0.29300
C880        C  0.79621348  0.29209678  0.68234869    -0.21500
C881        C  0.80855830  0.26375819  0.65923267    -0.09500
C882        C  0.79152227  0.25045924  0.61191304     0.29400
F883        F  0.80494635  0.22580796  0.58553105    -0.20000
H884        H  0.74759949  0.25223244  0.55540297     0.17700
H885        H  0.81017316  0.30427827  0.71674307     0.17700
F886        F  0.75548353  0.33371620  0.68459382    -0.20000
C887        C  0.61176409  0.13296366  0.73856765    -0.21500
C888        C  0.61276841  0.15094583  0.78518894    -0.09500
C889        C  0.59321483  0.13859867  0.81836107     0.29300
C890        C  0.57531499  0.10742284  0.80700289    -0.21500
C891        C  0.57556793  0.08839546  0.76172275    -0.09500
C892        C  0.59294679  0.10223978  0.72650543     0.29400
F893        F  0.59409875  0.08446889  0.68254667    -0.20000
H894        H  0.62620795  0.14217048  0.71209197     0.17700
H895        H  0.56276508  0.09689481  0.83520496     0.17700
F896        F  0.59335106  0.15506665  0.86387268    -0.20000
C897        C  0.61608046  0.33359307  0.90592544    -0.21500
C898        C  0.65019345  0.33660771  0.91727584    -0.09500
C899        C  0.66410815  0.37005370  0.91765312     0.29300
C900        C  0.64467149  0.39851431  0.89720720    -0.21500
C901        C  0.61149555  0.39347225  0.87581704    -0.09500
C902        C  0.59671035  0.36182904  0.88451317     0.29400
F903        F  0.56477379  0.35636788  0.86472752    -0.20000
H904        H  0.60479414  0.30787131  0.90499179     0.17700
H905        H  0.65637271  0.42314400  0.89124664     0.17700
F906        F  0.69678658  0.37385046  0.92884693    -0.20000
C907        C  0.80990804  0.25904449  0.91677270    -0.21500
C908        C  0.78614243  0.27027235  0.87526505    -0.09500
C909        C  0.79449867  0.29055545  0.83643277     0.29300
C910        C  0.82710333  0.29525900  0.83574663    -0.21500
C911        C  0.85047867  0.27673421  0.87072577    -0.09500
C912        C  0.84235007  0.26231938  0.91458309     0.29400
F913        F  0.86498416  0.24531181  0.94966536    -0.20000
H914        H  0.80333931  0.24407513  0.94760755     0.17700
H915        H  0.83355967  0.30727506  0.80253408     0.17700
F916        F  0.77142510  0.30247572  0.79695611    -0.20000
C917        C  0.88715437  0.08738881  0.89463553    -0.21500
C918        C  0.86235923  0.10100051  0.91739216    -0.09500
C919        C  0.86762996  0.13507082  0.93943978     0.29300
C920        C  0.88965892  0.15808060  0.92342333    -0.21500
C921        C  0.90701411  0.14697440  0.88646983    -0.09500
C922        C  0.90814299  0.11052747  0.87638916     0.29400
F923        F  0.92640964  0.09807448  0.84376307    -0.20000
H924        H  0.88752372  0.05961429  0.88498701     0.17700
H925        H  0.88997303  0.18559156  0.93479806     0.17700
F926        F  0.85143891  0.14640606  0.97545430    -0.20000
C927        C  0.68303719  0.01859532  0.88463180    -0.21500
C928        C  0.67920853  0.99400115  0.84429601    -0.09500
C929        C  0.70701065  0.47962411  0.83058610     0.29300
C930        C  0.73734737  0.49366975  0.85149916    -0.21500
C931        C  0.74011360  0.02449344  0.88176624    -0.09500
C932        C  0.71360228  0.03289019  0.90467647     0.29400
F933        F  0.71722581  0.05334915  0.94752599    -0.20000
H934        H  0.66237994  0.02746616  0.89961599     0.17700
H935        H  0.75846909  0.48162902  0.84144913     0.17700
F936        F  0.70489892  0.45261016  0.79619718    -0.20000
C937        C  0.82922911  0.58189249  0.40844436     0.29800
C938        C  0.77137482  0.54648106  0.38964282     0.29800
C939        C  0.81645312  0.56979380  0.35112011    -0.06400
C940        C  0.82855623  0.54643773  0.43737104    -0.07100
C941        C  0.79908624  0.60297744  0.42099405    -0.07000
C942        C  0.78574781  0.55374706  0.34207299    -0.06400
C943        C  0.79941556  0.52862088  0.42515177    -0.07100
C944        C  0.77015353  0.58361802  0.41234190    -0.07000
C945        C  0.78240718  0.53469375  0.29751904    -0.32400
N946        N  0.81039008  0.53428277  0.28060300     0.14100
C947        C  0.83147355  0.55573743  0.31234164    -0.32400
H948        H  0.85626322  0.55896570  0.30870085     0.16000
C949        C  0.80194850  0.49805950  0.45210562    -0.31400
N950        N  0.83061500  0.49749743  0.98629591     0.12800
C951        C  0.84771965  0.52651793  0.47619864    -0.31400
C952        C  0.74469095  0.60730700  0.40566135    -0.31700
N953        N  0.75567334  0.64060313  0.41352522     0.13300
H954        H  0.71959467  0.60120777  0.38959519     0.15900
C955        C  0.78862695  0.63870972  0.41902095    -0.31700
H956        H  0.80330339  0.66152423  0.41516591     0.15900
H957        H  0.87140382  0.53385388  0.49744349     0.15900
H958        H  0.76145319  0.01930321  0.28027515     0.16000
H959        H  0.78193856  0.98018820  0.45215047     0.15900
O960        O  0.73581315  0.69807498  0.42899126    -0.82000
C961        C  0.66983023  0.76299805  0.25254011     0.97400
O962        O  0.69440438  0.74528129  0.27095971    -0.71100
O963        O  0.74400692  0.73115927  0.33972898    -0.74700
Al964      Al  0.70178116  0.70929037  0.31736868     1.49000
C965        C  0.75381733  0.75653122  0.37077490     0.92600
O966        O  0.68588688  0.78639258  0.43591670    -0.80900
O967        O  0.63465315  0.74567433  0.41485042    -0.74500
Al968      Al  0.70720644  0.74065335  0.42496815     1.90100
O969        O  0.65951570  0.79576169  0.35761393    -0.73500
O970        O  0.62613504  0.70496963  0.32916107    -0.73400
O971        O  0.64495482  0.76085466  0.27214726    -0.79000
O972        O  0.66187628  0.68375414  0.28711899    -0.77200
O973        O  0.68448907  0.73299086  0.36195770    -1.13400
O974        O  0.71314965  0.66955759  0.35949161    -0.72600
C975        C  0.73434057  0.67081360  0.40028263     0.98200
C976        C  0.66781326  0.80585876  0.40329149     0.94600
Al977      Al  0.64426225  0.74989369  0.34446864     1.55600
O978        O  0.73788770  0.76755305  0.40252481    -0.77200
C979        C  0.63471392  0.68158782  0.30076754     0.98700
C980        C  0.65181413  0.73235153  0.45539405     0.93600
O981        O  0.67611353  0.71398854  0.45063721    -0.82500
C982        C  0.65257438  0.83405565  0.08449584     0.29800
C983        C  0.71112092  0.80066219  0.10251137     0.29800
C984        C  0.66557161  0.82230892  0.14143658    -0.06400
C985        C  0.65413296  0.79829622  0.05458319    -0.07100
C986        C  0.68217161  0.85579617  0.07186611    -0.07000
C987        C  0.69586806  0.80628164  0.14894040    -0.06400
C988        C  0.68385377  0.78078155  0.06669171    -0.07100
C989        C  0.71069218  0.83654166  0.07778028    -0.07000
C990        C  0.69900090  0.78434127  0.18985169    -0.32400
N991        N  0.67221194  0.78529403  0.20967808     0.14100
C992        C  0.65117496  0.80796361  0.18047971    -0.32400
H993        H  0.62680131  0.81208911  0.18590250     0.16000
C994        C  0.68094831  0.74961045  0.03998191    -0.31400
N995        N  0.65258982  0.74923313  0.50489434     0.12800
C996        C  0.63549298  0.77854596  0.01453938    -0.31400
C997        C  0.73614604  0.85830151  0.07456722    -0.31700
N998        N  0.72605127  0.89187189  0.07244307     0.13300
H999        H  0.76141509  0.85071246  0.08145381     0.15900
C1000       C  0.69360450  0.89111779  0.07339257    -0.31700
H1001       H  0.68035817  0.91432284  0.08109424     0.15900
H1002       H  0.61263007  0.78674730  0.99126896     0.15900
H1003       H  0.71872697  0.76581033  0.20113647     0.16000
H1004       H  0.69985005  0.73025170  0.54119510     0.15900
O1005       O  0.74776771  0.94821735  0.06100036    -0.82000
C1006       C  0.81432100  0.01062081  0.23924433     0.97400
O1007       O  0.79092415  0.99081300  0.22197873    -0.71100
O1008       O  0.74143772  0.97861153  0.15347006    -0.74700
Al1009     Al  0.78305958  0.95611144  0.17286804     1.49000
C1010       C  0.73135087  0.00473423  0.12477333     0.92600
O1011       O  0.79747578  0.53487254  0.05761584    -0.80900
O1012       O  0.84945087  0.99387997  0.07622557    -0.74500
Al1013     Al  0.77670740  0.48955500  0.06728261     1.90100
O1014       O  0.82593270  0.54371331  0.13512326    -0.73500
O1015       O  0.85889428  0.95297414  0.16147307    -0.73400
O1016       O  0.83926364  0.50953423  0.21946287    -0.79000
O1017       O  0.82271301  0.93015167  0.20067466    -0.77200
O1018       O  0.79998151  0.98108283  0.12954263    -1.13400
O1019       O  0.77065500  0.91750100  0.12736977    -0.72600
C1020       C  0.74888564  0.92045846  0.08738519     0.98200
C1021       C  0.81516007  0.55448339  0.09062553     0.94600
Al1022     Al  0.84036648  0.99796661  0.14703724     1.55600
O1023       O  0.74629387  0.51619212  0.09207534    -0.77200
C1024       C  0.85033650  0.92912626  0.18859222     0.98700
C1025       C  0.83173771  0.48084908  0.03555712     0.93600
O1026       O  0.80734833  0.46279777  0.04026228    -0.82500
O1027       O  0.51679359  0.97150055  0.20805951    -0.82000
C1028       C  0.64682614  0.98353468  0.31613537     0.97400
O1029       O  0.62242062  0.98603846  0.33691686    -0.71100
O1030       O  0.57997407  0.53188691  0.29659023    -0.74700
Al1031     Al  0.57629180  0.98372554  0.30886044     1.49000
C1032       C  0.56676714  0.55049585  0.25950295     0.92600
O1033       O  0.58868406  0.51219206  0.16912873    -0.80900
O1034       O  0.58013505  0.91035018  0.19984115    -0.74500
Al1035     Al  0.55413962  0.49051575  0.19029361     1.90100
O1036       O  0.61836680  0.96429101  0.17434528    -0.73500
O1037       O  0.61276955  0.91615121  0.29596302    -0.73400
O1038       O  0.64407701  0.97181876  0.27104604    -0.79000
O1039       O  0.57420429  0.93631826  0.33200937    -0.77200
O1040       O  0.58032699  0.97209932  0.24557753    -1.13400
O1041       O  0.52936575  0.98388695  0.29109333    -0.72600
C1042       C  0.50862252  0.97611207  0.25062005     0.98200
C1043       C  0.61297956  0.49605556  0.16098421     0.94600
Al1044     Al  0.61107231  0.94263287  0.23592226     1.55600
O1045       O  0.54872158  0.53638847  0.22067116    -0.77200
C1046       C  0.59753842  0.91554060  0.33179491     0.98700
C1047       C  0.56678795  0.91813738  0.15451620     0.93600
O1048       O  0.55584690  0.94926995  0.14486272    -0.82500
O1049       O  0.96510655  0.72160997  0.29419068    -0.82000
C1050       C  0.83779826  0.74715201  0.18745513     0.97400
O1051       O  0.86092641  0.74060985  0.16525527    -0.71100
O1052       O  0.90819181  0.78170301  0.20209369    -0.74700
Al1053     Al  0.90613654  0.73292095  0.19377215     1.49000
C1054       C  0.92051033  0.80121707  0.23919924     0.92600
O1055       O  0.89714095  0.76943206  0.33669973    -0.78900
O1056       O  0.89218420  0.66707233  0.30254044    -0.74500
Al1057     Al  0.92896431  0.74356605  0.31246294     1.90100
O1058       O  0.86321976  0.72570971  0.33129631    -0.73500
O1059       O  0.85959891  0.67636777  0.20836493    -0.73400
O1060       O  0.83909952  0.73907310  0.23387806    -0.79000
O1061       O  0.90234575  0.68387571  0.17545302    -0.77200
O1062       O  0.90102315  0.72648188  0.25798718    -1.13400
O1063       O  0.95210114  0.72799057  0.21037814    -0.72600
C1064       C  0.97291510  0.72271878  0.25109580     0.98200
C1065       C  0.87221454  0.75619492  0.34682845     0.94600
Al1066     Al  0.86649855  0.70369875  0.26824776     1.55600
O1067       O  0.93590206  0.78813432  0.28083017    -0.77200
C1068       C  0.87527439  0.66930980  0.17444017     0.98700
C1069       C  0.91021273  0.67254681  0.34598429     0.93600
O1070       O  0.92491318  0.70212982  0.35622560    -0.82500
C1071       C  0.15219230  0.58424820  0.08370744     0.29800
C1072       C  0.21053211  0.55018438  0.10271139     0.29800
C1073       C  0.16422423  0.57139788  0.14033170    -0.06400
C1074       C  0.15398222  0.54918101  0.05256601    -0.07100
C1075       C  0.18233582  0.60610724  0.07339793    -0.07000
C1076       C  0.19423200  0.55459969  0.14829392    -0.06400
C1077       C  0.18359076  0.53149493  0.06463781    -0.07100
C1078       C  0.21096513  0.58694750  0.08092730    -0.07000
C1079       C  0.19587977  0.53160836  0.18769785    -0.32400
N1080       N  0.16876387  0.53323605  0.20681388     0.14100
C1081       C  0.14889080  0.55728421  0.17838346    -0.32400
H1082       H  0.12468342  0.56273155  0.18367243     0.16000
C1083       C  0.18047306  0.50036569  0.03777716    -0.31400
N1084       N  0.15180172  0.49992188  0.50336615     0.12800
C1085       C  0.13490695  0.52927291  0.01325326    -0.31400
C1086       C  0.23655597  0.60902815  0.07963607    -0.31700
N1087       N  0.22597107  0.64251315  0.07480117     0.13300
H1088       H  0.26190695  0.60173578  0.08848848     0.15900
C1089       C  0.19319303  0.64153090  0.07296835    -0.31700
H1090       H  0.17926827  0.66490364  0.07742534     0.15900
H1091       H  0.11154906  0.53701328  0.99118596     0.15900
H1092       H  0.21498651  0.01231585  0.19875199     0.16000
H1093       H  0.19923731  0.98081179  0.53899108     0.15900
O1094       O  0.24625341  0.69965915  0.06250953    -0.82000
C1095       C  0.31146775  0.76406197  0.23911058     0.97400
O1096       O  0.28799198  0.74438432  0.22181332    -0.71100
O1097       O  0.23889442  0.73047789  0.15341890    -0.74700
Al1098     Al  0.28097948  0.70885542  0.17412565     1.49000
C1099       C  0.22877616  0.75651408  0.12455738     0.92600
O1100       O  0.29576774  0.78723428  0.05835966    -0.80900
O1101       O  0.34756695  0.74623082  0.07746560    -0.74500
Al1102     Al  0.27476833  0.74171030  0.06819547     1.90100
O1103       O  0.32353290  0.79617592  0.13615845    -0.73500
O1104       O  0.35674039  0.70529744  0.16286036    -0.73400
O1105       O  0.33681213  0.76210600  0.22043782    -0.79000
O1106       O  0.32090729  0.68355509  0.20363583    -0.77200
O1107       O  0.29795403  0.73348307  0.13055231    -1.13400
O1108       O  0.26969071  0.66969986  0.12949895    -0.72600
C1109       C  0.24806119  0.67187658  0.08922145     0.98200
C1110       C  0.31403894  0.80657604  0.09116265     0.94600
Al1111     Al  0.33823540  0.75041360  0.14821488     1.55600
O1112       O  0.24413336  0.76830942  0.09263626    -0.77200
C1113       C  0.34835178  0.68192402  0.19095468     0.98700
C1114       C  0.32980340  0.73340947  0.03669376     0.93600
O1115       O  0.30553173  0.71514173  0.04133186    -0.82500
C1116       C  0.32642589  0.83431510  0.40849184     0.29800
C1117       C  0.26916094  0.79769207  0.38904906     0.29800
C1118       C  0.31361686  0.82270098  0.35106145    -0.06400
C1119       C  0.32638567  0.79852103  0.43690524    -0.07100
C1120       C  0.29607438  0.85446305  0.42164224    -0.07000
C1121       C  0.28299858  0.80657498  0.34165240    -0.06400
C1122       C  0.29761927  0.77994726  0.42409649    -0.07100
C1123       C  0.26737972  0.83437789  0.41302957    -0.07000
C1124       C  0.27912460  0.78894727  0.29600876    -0.32400
N1125       N  0.30727423  0.78828475  0.27956708     0.14100
C1126       C  0.32859980  0.80900895  0.31210525    -0.32400
H1127       H  0.35358552  0.81162501  0.30920141     0.16000
C1128       C  0.30026009  0.74992199  0.45239042    -0.31400
N1129       N  0.32854538  0.75039129  0.98757567     0.12800
C1130       C  0.34512786  0.77992290  0.47778762    -0.31400
C1131       C  0.24153744  0.85757192  0.40524577    -0.31700
N1132       N  0.25200340  0.89098662  0.41166905     0.13300
H1133       H  0.21662269  0.85127376  0.38841169     0.15900
C1134       C  0.28491776  0.88983378  0.41764666    -0.31700
H1135       H  0.29902345  0.91272231  0.41209624     0.15900
H1136       H  0.36756569  0.78910561  0.50145331     0.15900
H1137       H  0.25784134  0.77410973  0.27826813     0.16000
H1138       H  0.28039689  0.73187418  0.45260725     0.15900
O1139       O  0.23285361  0.94871179  0.42443372    -0.82000
C1140       C  0.16541097  0.01079122  0.24912516     0.97400
O1141       O  0.18922795  0.99172238  0.26652909    -0.71100
O1142       O  0.23946305  0.97826145  0.33436339    -0.74700
Al1143     Al  0.19678654  0.95692118  0.31420613     1.49000
C1144       C  0.24967010  0.00455303  0.36339847     0.92600
O1145       O  0.18386803  0.53609720  0.43193762    -0.80900
O1146       O  0.13202264  0.99521727  0.41370180    -0.74500
Al1147     Al  0.20439488  0.49076029  0.42028277     1.90100
O1148       O  0.15546628  0.54516864  0.35485534    -0.73500
O1149       O  0.12149455  0.95407268  0.32778349    -0.73400
O1150       O  0.14076892  0.51013944  0.26963299    -0.79000
O1151       O  0.15670565  0.93177792  0.28577100    -0.77200
O1152       O  0.18042293  0.98208628  0.35852301    -1.13400
O1153       O  0.20803431  0.91815356  0.35834177    -0.72600
C1154       C  0.23030999  0.92057949  0.39771440     0.98200
C1155       C  0.16548544  0.55553451  0.40011178     0.94600
Al1156     Al  0.14027871  0.99917683  0.34234821     1.55600
O1157       O  0.23384511  0.51741643  0.39411813    -0.77200
C1158       C  0.12964824  0.93026111  0.29959417     0.98700
C1159       C  0.15014866  0.48256088  0.45402308     0.93600
O1160       O  0.17441064  0.46439263  0.44862777    -0.82500
O1161       O  0.01495978  0.71908819  0.20569555    -0.82000
C1162       C  0.14497335  0.73485338  0.31149876     0.97400
O1163       O  0.12072323  0.73501875  0.33283113    -0.71100
O1164       O  0.07680367  0.77999463  0.29585901    -0.74700
Al1165     Al  0.07465339  0.73155436  0.30550985     1.49000
C1166       C  0.06265297  0.79888650  0.25980180     0.92600
O1167       O  0.08505501  0.76418275  0.16610251    -0.80900
O1168       O  0.08012981  0.66120297  0.19454085    -0.74500
Al1169     Al  0.05141113  0.74026908  0.18761455     1.90100
O1170       O  0.11581804  0.71727935  0.16881804    -0.73500
O1171       O  0.11369214  0.66693614  0.28996061    -0.73400
O1172       O  0.14246323  0.72455576  0.26569601    -0.79000
O1173       O  0.07367577  0.68354681  0.32529593    -0.77200
O1174       O  0.07862991  0.72197290  0.24163768    -1.13400
O1175       O  0.02808520  0.73043252  0.28891341    -0.72600
C1176       C  0.00721956  0.72267252  0.24876251     0.98200
C1177       C  0.10960494  0.74911633  0.15669793     0.94600
Al1178     Al  0.11023425  0.69430678  0.23039692     1.55600
O1179       O  0.04497562  0.78503649  0.22032618    -0.77200
C1180       C  0.09823915  0.66468161  0.32539149     0.98700
C1181       C  0.06581565  0.66896405  0.14969720     0.93600
O1182       O  0.05392746  0.69982774  0.14079582    -0.82500
O1183       O  0.46529875  0.97452747  0.29405068    -0.82000
C1184       C  0.33780358  0.99403108  0.18194785     0.97400
O1185       O  0.36163273  0.98976603  0.16031705    -0.71100
O1186       O  0.40680668  0.53324451  0.19994446    -0.74700
Al1187     Al  0.40732395  0.98443540  0.19085843     1.49000
C1188       C  0.41853788  0.55285540  0.23724730     0.92600
O1189       O  0.39386816  0.51907522  0.33152159    -0.80900
O1190       O  0.39544076  0.91624699  0.29874475    -0.74500
Al1191     Al  0.42764932  0.49485619  0.30994075     1.90100
O1192       O  0.36211018  0.97315997  0.32507264    -0.73500
O1193       O  0.36400399  0.92386442  0.20309309    -0.73400
O1194       O  0.33899360  0.98438012  0.22761919    -0.79000
O1195       O  0.40650383  0.93551135  0.17126552    -0.77200
O1196       O  0.40143638  0.97661251  0.25433673    -1.13400
O1197       O  0.45367954  0.98184200  0.21018916    -0.72600
C1198       C  0.47399612  0.97644483  0.25163116     0.98200
C1199       C  0.36960768  0.50397215  0.34127425     0.94600
Al1200     Al  0.36802072  0.95117843  0.26295829     1.55600
O1201       O  0.43408620  0.53982476  0.27880188    -0.77200
C1202       C  0.38049347  0.91866785  0.16958700     0.98700
C1203       C  0.41066842  0.92303238  0.34371902     0.93600
O1204       O  0.42387602  0.95338541  0.35428296    -0.82500
C1205       C  0.08921230  0.88707158  0.31904554    -0.21500
C1206       C  0.10757954  0.89969067  0.28450080    -0.09500
C1207       C  0.10573049  0.88170150  0.23756736     0.29300
C1208       C  0.08702077  0.85088844  0.22664196    -0.21500
C1209       C  0.07075215  0.83685276  0.26294039    -0.09500
C1210       C  0.07152990  0.85560667  0.30894506     0.29400
F1211       F  0.05703300  0.84216976  0.34562340    -0.20000
H1212       H  0.09026526  0.90034198  0.35553341     0.17700
H1213       H  0.08762110  0.83630915  0.19170242     0.17700
F1214       F  0.12285460  0.89317459  0.20302961    -0.20000
C1215       C  0.14653599  0.64788382  0.38847698    -0.21500
C1216       C  0.11302740  0.64346518  0.36959187    -0.09500
C1217       C  0.09740572  0.61380788  0.38345971     0.29300
C1218       C  0.11615350  0.58592703  0.40724871    -0.21500
C1219       C  0.15024147  0.58737388  0.41520421    -0.09500
C1220       C  0.16527844  0.61971553  0.41121128     0.29400
F1221       F  0.19804651  0.62192330  0.41936660    -0.20000
H1222       H  0.15876340  0.67130505  0.37902282     0.17700
H1223       H  0.10412441  0.56095121  0.40961200     0.17700
F1224       F  0.06509089  0.60920419  0.36617859    -0.20000
C1225       C  0.29206475  0.53980351  0.33495728    -0.21500
C1226       C  0.28276008  0.51610027  0.36912383    -0.09500
C1227       C  0.30587806  0.00118037  0.40853735     0.29300
C1228       C  0.33842046  0.00441659  0.40750171    -0.21500
C1229       C  0.34743404  0.52237835  0.36705834    -0.09500
C1230       C  0.32496413  0.54432362  0.33588671     0.29400
F1231       F  0.33447818  0.56533666  0.30083845    -0.20000
H1232       H  0.27413799  0.55290927  0.30613759     0.17700
H1233       H  0.35583210  0.98849137  0.43316931     0.17700
F1234       F  0.29687477  0.98021633  0.44426554    -0.20000
C1235       C  0.38692927  0.91092594  0.41954703    -0.21500
C1236       C  0.40500416  0.89843559  0.38428086    -0.09500
C1237       C  0.40577829  0.86171676  0.37618806     0.29300
C1238       C  0.38439646  0.83946680  0.39516462    -0.21500
C1239       C  0.35937735  0.85395153  0.41661103    -0.09500
C1240       C  0.36439501  0.88878280  0.43617501     0.29400
F1241       F  0.34777453  0.90163819  0.47072493    -0.20000
H1242       H  0.38752253  0.93868200  0.42955871     0.17700
H1243       H  0.38459047  0.81147086  0.38675545     0.17700
F1244       F  0.42436285  0.84793746  0.34497242    -0.20000
C1245       C  0.21104407  0.78472464  0.40065075    -0.21500
C1246       C  0.23809706  0.77523153  0.38000286    -0.09500
C1247       C  0.23539067  0.74412065  0.35002093     0.29300
C1248       C  0.20486316  0.73062370  0.32831327    -0.21500
C1249       C  0.17697295  0.74582943  0.34026826    -0.09500
C1250       C  0.18039242  0.77127600  0.37946607     0.29400
F1251       F  0.15415122  0.78462674  0.39515368    -0.20000
H1252       H  0.21314918  0.80322808  0.43221101     0.17700
H1253       H  0.20297834  0.70864738  0.30153843     0.17700
F1254       F  0.26199980  0.72754820  0.34009758    -0.20000
C1255       C  0.38947631  0.63845353  0.17355271    -0.21500
C1256       C  0.37085667  0.65192567  0.20746052    -0.09500
C1257       C  0.37376026  0.63600746  0.25574352     0.29300
C1258       C  0.39340024  0.60599872  0.26832356    -0.21500
C1259       C  0.40968278  0.59075370  0.23249792    -0.09500
C1260       C  0.40829592  0.60797189  0.18551087     0.29400
F1261       F  0.42352092  0.59396353  0.14978547    -0.20000
H1262       H  0.38799165  0.65038358  0.13632660     0.17700
H1263       H  0.39368630  0.59296038  0.30443153     0.17700
F1264       F  0.35708750  0.64893663  0.29027198    -0.20000
C1265       C  0.36319263  0.83854394  0.08638935    -0.21500
C1266       C  0.32902038  0.83906476  0.07830116    -0.09500
C1267       C  0.31343313  0.87065529  0.08501228     0.29300
C1268       C  0.33165595  0.89890507  0.10923126    -0.21500
C1269       C  0.36547930  0.89595216  0.12628337    -0.09500
C1270       C  0.38153171  0.86688732  0.11084574     0.29400
F1271       F  0.41404063  0.86328818  0.12689773    -0.20000
H1272       H  0.37568385  0.81397163  0.08277396     0.17700
H1273       H  0.31885727  0.92115158  0.12122427     0.17700
F1274       F  0.28067892  0.87167061  0.07848328    -0.20000
C1275       C  0.14010706  0.76023406  0.08992292    -0.21500
C1276       C  0.13386608  0.76903067  0.13799309    -0.09500
C1277       C  0.15808241  0.78460404  0.17563241     0.29300
C1278       C  0.18987918  0.78435378  0.16909913    -0.21500
C1279       C  0.19681195  0.77022992  0.12403986    -0.09500
C1280       C  0.17176242  0.76110600  0.08265272     0.29400
F1281       F  0.17843189  0.74769922  0.03852430    -0.20000
H1282       H  0.12142395  0.74862127  0.06049922     0.17700
H1283       H  0.20925262  0.79162343  0.20094783     0.17700
F1284       F  0.15199729  0.79376160  0.22210425    -0.20000
C1285       C  0.11442252  0.63786409  0.05902473    -0.21500
C1286       C  0.11890523  0.60269355  0.07567270    -0.09500
C1287       C  0.09318434  0.58710268  0.09411704     0.29300
C1288       C  0.07121618  0.60868982  0.11331662    -0.21500
C1289       C  0.07199249  0.64552937  0.10775047    -0.09500
C1290       C  0.09078026  0.65909420  0.07444725     0.29400
F1291       F  0.08973419  0.69396963  0.06326709    -0.20000
H1292       H  0.13018460  0.64971217  0.03684699     0.17700
H1293       H  0.05584767  0.59702216  0.13661478     0.17700
F1294       F  0.09187006  0.55157112  0.09985021    -0.20000
C1295       C  0.25927701  0.51270061  0.08853229    -0.21500
C1296       C  0.24489346  0.53591638  0.11888115    -0.09500
C1297       C  0.26471538  0.55029243  0.16380110     0.29300
C1298       C  0.29537168  0.53723310  0.18200311    -0.21500
C1299       C  0.30813573  0.51108283  0.15519864    -0.09500
C1300       C  0.29085401  0.00015948  0.10672773     0.29400
F1301       F  0.30405319  0.97715050  0.07760638    -0.20000
H1302       H  0.24679777  0.00486574  0.05064557     0.17700
H1303       H  0.30920397  0.54738158  0.21771949     0.17700
F1304       F  0.25445363  0.57713273  0.19065025    -0.20000
C1305       C  0.91118969  0.85549254  0.18658421    -0.21500
C1306       C  0.91224618  0.83919308  0.23406538    -0.09500
C1307       C  0.89543061  0.85508130  0.26881568     0.29300
C1308       C  0.87551555  0.88453556  0.25420766    -0.21500
C1309       C  0.87304813  0.89953272  0.20555554    -0.09500
C1310       C  0.89227451  0.88565674  0.17270776     0.29400
F1311       F  0.89080820  0.89949657  0.12544107    -0.20000
H1312       H  0.92330809  0.84337443  0.15871869     0.17700
H1313       H  0.86145295  0.89517679  0.28052588     0.17700
F1314       F  0.89575551  0.84024996  0.31503463    -0.20000
C1315       C  0.80877009  0.61753540  0.09131998    -0.21500
C1316       C  0.82660457  0.58902707  0.07897205    -0.09500
C1317       C  0.86047359  0.59256837  0.08431218     0.29300
C1318       C  0.87662764  0.62156040  0.11031947    -0.21500
C1319       C  0.85912727  0.64630348  0.13234403    -0.09500
C1320       C  0.82486208  0.64555807  0.11957996     0.29400
F1321       F  0.80687798  0.66921244  0.14018136    -0.20000
H1322       H  0.78283091  0.61507262  0.08807000     0.17700
H1323       H  0.90285853  0.62189275  0.11938880     0.17700
F1324       F  0.87865275  0.56463696  0.07548703    -0.20000
C1325       C  0.67444113  0.00915074  0.08475647    -0.21500
C1326       C  0.69972256  0.01879329  0.12535883    -0.09500
C1327       C  0.69321748  0.53227102  0.17109215     0.29300
C1328       C  0.66183730  0.53072052  0.17916972    -0.21500
C1329       C  0.63762081  0.51487630  0.14199320    -0.09500
C1330       C  0.64315221  0.00677952  0.09328838     0.29400
F1331       F  0.61948239  0.99227212  0.05671269    -0.20000
H1332       H  0.67953214  0.99885046  0.04916525     0.17700
H1333       H  0.65749892  0.53704098  0.21694386     0.17700
F1334       F  0.71763026  0.54260460  0.20990125    -0.20000
C1335       C  0.59470857  0.83633370  0.09864745    -0.21500
C1336       C  0.61907352  0.85212369  0.07727693    -0.09500
C1337       C  0.61321906  0.88705444  0.05965056     0.29300
C1338       C  0.59051168  0.90809949  0.07798367    -0.21500
C1339       C  0.57309461  0.89432790  0.11302158    -0.09500
C1340       C  0.57297937  0.85749253  0.11905189     0.29400
F1341       F  0.55468013  0.84258428  0.14950978    -0.20000
H1342       H  0.59551177  0.80827656  0.10628579     0.17700
H1343       H  0.58944283  0.93603968  0.06967511     0.17700
F1344       F  0.62950855  0.90117908  0.02587544    -0.20000
C1345       C  0.76000932  0.76226553  0.09208828    -0.21500
C1346       C  0.74579659  0.78767070  0.11917107    -0.09500
C1347       C  0.76573026  0.80480104  0.16187058     0.29300
C1348       C  0.79621045  0.79209978  0.18233496    -0.21500
C1349       C  0.80855380  0.76376419  0.15921015    -0.09500
C1350       C  0.79151709  0.75047127  0.11188736     0.29400
F1351       F  0.80494067  0.72582474  0.08549695    -0.20000
H1352       H  0.74759210  0.75224918  0.05538216     0.17700
H1353       H  0.81017079  0.80427657  0.21673295     0.17700
F1354       F  0.75548176  0.83371897  0.18459096    -0.20000
C1355       C  0.61176517  0.63296984  0.23856778    -0.21500
C1356       C  0.61276790  0.65094887  0.28519081    -0.09500
C1357       C  0.59321511  0.63859713  0.31836128     0.29300
C1358       C  0.57531670  0.60742031  0.30699801    -0.21500
C1359       C  0.57557082  0.58839645  0.26171486    -0.09500
C1360       C  0.59295046  0.60224473  0.22650139     0.29400
F1361       F  0.59410660  0.58447600  0.18254263    -0.20000
H1362       H  0.62620919  0.64217967  0.21209412     0.17700
H1363       H  0.56276689  0.59688890  0.33519809     0.17700
F1364       F  0.59335147  0.65506111  0.36387589    -0.20000
C1365       C  0.61606358  0.83357671  0.40590786    -0.21500
C1366       C  0.65017599  0.83659923  0.41728270    -0.09500
C1367       C  0.66408545  0.87005045  0.41769726     0.29300
C1368       C  0.64464623  0.89851416  0.39727004    -0.21500
C1369       C  0.61147410  0.89346918  0.37585513    -0.09500
C1370       C  0.59669207  0.86181476  0.38450847     0.29400
F1371       F  0.56476006  0.85634865  0.36469146    -0.20000
H1372       H  0.60478106  0.80785127  0.40494841     0.17700
H1373       H  0.65634495  0.92315144  0.39133863     0.17700
F1374       F  0.69676302  0.87385426  0.42891119    -0.20000
C1375       C  0.80990770  0.75903485  0.41677701    -0.21500
C1376       C  0.78613966  0.77027500  0.37528155    -0.09500
C1377       C  0.79449354  0.79056331  0.33645265     0.29300
C1378       C  0.82709715  0.79525740  0.33575267    -0.21500
C1379       C  0.85047244  0.77672226  0.37071784    -0.09500
C1380       C  0.84234816  0.76230258  0.41457525     0.29400
F1381       F  0.86498247  0.74528386  0.44964299    -0.20000
H1382       H  0.80334074  0.74406044  0.44760886     0.17700
H1383       H  0.83354965  0.80727543  0.30253851     0.17700
F1384       F  0.77141745  0.80249529  0.29698843    -0.20000
C1385       C  0.88715622  0.58738079  0.39464079    -0.21500
C1386       C  0.86236215  0.60099335  0.41739835    -0.09500
C1387       C  0.86763211  0.63506459  0.43944083     0.29300
C1388       C  0.88965476  0.65807520  0.42341023    -0.21500
C1389       C  0.90700331  0.64696756  0.38644847    -0.09500
C1390       C  0.90813585  0.61052003  0.37637574     0.29400
F1391       F  0.92639636  0.59806594  0.34374154    -0.20000
H1392       H  0.88752693  0.55960516  0.38499829     0.17700
H1393       H  0.88996914  0.68558650  0.43478168     0.17700
F1394       F  0.85144552  0.64639929  0.47546154    -0.20000
C1395       C  0.68303616  0.51859641  0.38458663    -0.21500
C1396       C  0.67921079  0.49400205  0.34425187    -0.09500
C1397       C  0.70700705  0.97962219  0.33062692     0.29300
C1398       C  0.73734468  0.99366708  0.35153541    -0.21500
C1399       C  0.74011407  0.52449428  0.38173442    -0.09500
C1400       C  0.71360016  0.53289031  0.40463806     0.29400
F1401       F  0.71722057  0.55334579  0.44749034    -0.20000
H1402       H  0.66237737  0.52746651  0.39956736     0.17700
H1403       H  0.75846515  0.98162521  0.34148287     0.17700
F1404       F  0.70489305  0.95260947  0.29623586    -0.20000
C1405       C  0.82922912  0.58189252  0.90844428     0.29800
C1406       C  0.77137487  0.54648103  0.88964274     0.29800
C1407       C  0.81645314  0.56979383  0.85111999    -0.06400
C1408       C  0.82855628  0.54643773  0.93737097    -0.07100
C1409       C  0.79908625  0.60297744  0.92099404    -0.07000
C1410       C  0.78574785  0.55374707  0.84207287    -0.06400
C1411       C  0.79941564  0.52862084  0.92515162    -0.07100
C1412       C  0.77015357  0.58361798  0.91234189    -0.07000
C1413       C  0.78240723  0.53469374  0.79751892    -0.32400
N1414       N  0.81039011  0.53428282  0.78060280     0.14100
C1415       C  0.83147361  0.55573751  0.81234145    -0.32400
H1416       H  0.85626320  0.55896574  0.80870067     0.16000
C1417       C  0.80194858  0.49805951  0.95210558    -0.31400
N1418       N  0.83061495  0.49749741  0.48629590     0.12800
C1419       C  0.84771964  0.52651798  0.97619865    -0.31400
C1420       C  0.74469095  0.60730692  0.90566139    -0.31700
N1421       N  0.75567333  0.64060308  0.91352526     0.13300
H1422       H  0.71959474  0.60120768  0.88959529     0.15900
C1423       C  0.78862691  0.63870970  0.91902092    -0.31700
H1424       H  0.80330335  0.66152425  0.91516583     0.15900
H1425       H  0.87140387  0.53385399  0.99744362     0.15900
H1426       H  0.76145319  0.01930327  0.78027508     0.16000
H1427       H  0.78193853  0.98018815  0.95215042     0.15900
O1428       O  0.73581305  0.69807489  0.92899136    -0.82000
C1429       C  0.66983014  0.76299806  0.75254013     0.97400
O1430       O  0.69440431  0.74528133  0.77095975    -0.71100
O1431       O  0.74400698  0.73115930  0.83972902    -0.74700
Al1432     Al  0.70178118  0.70929041  0.81736867     1.49000
C1433       C  0.75381735  0.75653124  0.87077495     0.92600
O1434       O  0.68588681  0.78639259  0.93591674    -0.80900
O1435       O  0.63465317  0.74567437  0.91485044    -0.74500
Al1436     Al  0.70720639  0.74065333  0.92496817     1.90100
O1437       O  0.65951574  0.79576172  0.85761393    -0.73500
O1438       O  0.62613497  0.70496965  0.82916098    -0.73400
O1439       O  0.64495473  0.76085467  0.77214728    -0.79000
O1440       O  0.66187631  0.68375418  0.78711903    -0.77200
O1441       O  0.68448905  0.73299086  0.86195770    -1.13400
O1442       O  0.71314973  0.66955759  0.85949152    -0.72600
C1443       C  0.73434053  0.67081355  0.90028265     0.98200
C1444       C  0.66781322  0.80585878  0.90329151     0.94600
Al1445     Al  0.64426223  0.74989372  0.84446864     1.55600
O1446       O  0.73788766  0.76755306  0.90252481    -0.77200
C1447       C  0.63471389  0.68158786  0.80076742     0.98700
C1448       C  0.65181414  0.73235153  0.95539405     0.93600
O1449       O  0.67611350  0.71398851  0.95063719    -0.82500
C1450       C  0.65257436  0.83405567  0.58449585     0.29800
C1451       C  0.71112089  0.80066219  0.60251137     0.29800
C1452       C  0.66557156  0.82230893  0.64143658    -0.06400
C1453       C  0.65413290  0.79829623  0.55458320    -0.07100
C1454       C  0.68217159  0.85579618  0.57186611    -0.07000
C1455       C  0.69586802  0.80628166  0.64894041    -0.06400
C1456       C  0.68385371  0.78078157  0.56669170    -0.07100
C1457       C  0.71069216  0.83654167  0.57778025    -0.07000
C1458       C  0.69900081  0.78434129  0.68985170    -0.32400
N1459       N  0.67221185  0.78529401  0.70967806     0.14100
C1460       C  0.65117487  0.80796355  0.68047963    -0.32400
H1461       H  0.62680120  0.81208901  0.68590239     0.16000
C1462       C  0.68094829  0.74961047  0.53998187    -0.31400
N1463       N  0.65258987  0.74923312  0.00489436     0.12800
C1464       C  0.63549289  0.77854596  0.51453936    -0.31400
C1465       C  0.73614602  0.85830156  0.57456723    -0.31700
N1466       N  0.72605123  0.89187194  0.57244308     0.13300
H1467       H  0.76141505  0.85071253  0.58145385     0.15900
C1468       C  0.69360443  0.89111786  0.57339260    -0.31700
H1469       H  0.68035814  0.91432278  0.58109428     0.15900
H1470       H  0.61263005  0.78674730  0.49126900     0.15900
H1471       H  0.71872693  0.76581034  0.70113656     0.16000
H1472       H  0.69985010  0.73025156  0.04119519     0.15900
O1473       O  0.74776776  0.94821735  0.56100035    -0.82000
C1474       C  0.81432108  0.01062084  0.73924435     0.97400
O1475       O  0.79092425  0.99081301  0.72197874    -0.71100
O1476       O  0.74143779  0.97861158  0.65347012    -0.74700
Al1477     Al  0.78305962  0.95611148  0.67286808     1.49000
C1478       C  0.73135089  0.00473425  0.62477337     0.92600
O1479       O  0.79747584  0.53487254  0.55761586    -0.80900
O1480       O  0.84945083  0.99388002  0.57622560    -0.74500
Al1481     Al  0.77670743  0.48955497  0.56728263     1.90100
O1482       O  0.82593277  0.54371324  0.63512325    -0.73500
O1483       O  0.85889427  0.95297415  0.66147307    -0.73400
O1484       O  0.83926362  0.50953426  0.71946265    -0.79000
O1485       O  0.82271301  0.93015168  0.70067471    -0.77200
O1486       O  0.79998156  0.98108285  0.62954265    -1.13400
O1487       O  0.77065494  0.91750103  0.62736986    -0.72600
C1488       C  0.74888560  0.92045850  0.58738525     0.98200
C1489       C  0.81516013  0.55448336  0.59062556     0.94600
Al1490     Al  0.84036650  0.99796665  0.64703726     1.55600
O1491       O  0.74629394  0.51619201  0.59207541    -0.77200
C1492       C  0.85033649  0.92912627  0.68859223     0.98700
C1493       C  0.83173768  0.48084908  0.53555713     0.93600
O1494       O  0.80734831  0.46279779  0.54026231    -0.82500
O1495       O  0.51679360  0.97150057  0.70805944    -0.82000
C1496       C  0.64682615  0.98353472  0.81613541     0.97400
O1497       O  0.62242064  0.98603850  0.83691692    -0.71100
O1498       O  0.57997403  0.53188692  0.79659026    -0.74700
Al1499     Al  0.57629177  0.98372556  0.80886046     1.49000
C1500       C  0.56676713  0.55049582  0.75950291     0.92600
O1501       O  0.58868415  0.51219208  0.66912878    -0.80900
O1502       O  0.58013517  0.91035022  0.69984116    -0.74500
Al1503     Al  0.55413969  0.49051570  0.69029358     1.90100
O1504       O  0.61836687  0.96429105  0.67434534    -0.73500
O1505       O  0.61276961  0.91615125  0.79596304    -0.73400
O1506       O  0.64407701  0.97181882  0.77104606    -0.79000
O1507       O  0.57420432  0.93631827  0.83200938    -0.77200
O1508       O  0.58032700  0.97209933  0.74557754    -1.13400
O1509       O  0.52936569  0.98388698  0.79109327    -0.72600
C1510       C  0.50862250  0.97611210  0.75061994     0.98200
C1511       C  0.61297964  0.49605557  0.66098425     0.94600
Al1512     Al  0.61107236  0.94263291  0.73592229     1.55600
O1513       O  0.54872163  0.53638839  0.72067110    -0.77200
C1514       C  0.59753846  0.91554063  0.83179491     0.98700
C1515       C  0.56678802  0.91813740  0.65451624     0.93600
O1516       O  0.55584688  0.94926994  0.64486276    -0.82500
O1517       O  0.96510662  0.72160999  0.79419065    -0.82000
C1518       C  0.83779819  0.74715197  0.68745507     0.97400
O1519       O  0.86092638  0.74060990  0.66525525    -0.71100
O1520       O  0.90819183  0.78170303  0.70209362    -0.74700
Al1521     Al  0.90613652  0.73292098  0.69377213     1.49000
C1522       C  0.92051037  0.80121708  0.73919916     0.92600
O1523       O  0.89714099  0.76943208  0.83669954    -0.78900
O1524       O  0.89218436  0.66707235  0.80254035    -0.74500
Al1525     Al  0.92896437  0.74356608  0.81246287     1.90100
O1526       O  0.86321986  0.72570969  0.83129633    -0.73500
O1527       O  0.85959892  0.67636775  0.70836496    -0.73400
O1528       O  0.83909938  0.73907293  0.73387795    -0.79000
O1529       O  0.90234571  0.68387576  0.67545300    -0.77200
O1530       O  0.90102316  0.72648193  0.75798714    -1.13400
O1531       O  0.95210112  0.72799058  0.71037812    -0.72600
C1532       C  0.97291513  0.72271880  0.75109575     0.98200
C1533       C  0.87221463  0.75619490  0.84682845     0.94600
Al1534     Al  0.86649859  0.70369872  0.76824774     1.55600
O1535       O  0.93590212  0.78813435  0.78083009    -0.77200
C1536       C  0.87527438  0.66930982  0.67444016     0.98700
C1537       C  0.91021283  0.67254682  0.84598426     0.93600
O1538       O  0.92491326  0.70212985  0.85622558    -0.82500
C1539       C  0.15219227  0.58424820  0.58370740     0.29800
C1540       C  0.21053208  0.55018436  0.60271133     0.29800
C1541       C  0.16422420  0.57139787  0.64033166    -0.06400
C1542       C  0.15398222  0.54918099  0.55256599    -0.07100
C1543       C  0.18233581  0.60610727  0.57339793    -0.07000
C1544       C  0.19423196  0.55459967  0.64829384    -0.06400
C1545       C  0.18359077  0.53149490  0.56463776    -0.07100
C1546       C  0.21096510  0.58694749  0.58092725    -0.07000
C1547       C  0.19587980  0.53160839  0.68769784    -0.32400
N1548       N  0.16876386  0.53323609  0.70681389     0.14100
C1549       C  0.14889085  0.55728422  0.67838348    -0.32400
H1550       H  0.12468336  0.56273160  0.68367252     0.16000
C1551       C  0.18047309  0.50036561  0.53777714    -0.31400
N1552       N  0.15180169  0.49992187  0.00336618     0.12800
C1553       C  0.13490692  0.52927290  0.51325324    -0.31400
C1554       C  0.23655595  0.60902811  0.57963606    -0.31700
N1555       N  0.22597114  0.64251312  0.57480122     0.13300
H1556       H  0.26190697  0.60173565  0.58848846     0.15900
C1557       C  0.19319310  0.64153090  0.57296837    -0.31700
H1558       H  0.17926833  0.66490372  0.57742533     0.15900
H1559       H  0.11154911  0.53701325  0.49118603     0.15900
H1560       H  0.21498656  0.01231586  0.69875199     0.16000
H1561       H  0.19923732  0.98081179  0.03899102     0.15900
O1562       O  0.24625349  0.69965911  0.56250955    -0.82000
C1563       C  0.31146772  0.76406200  0.73911061     0.97400
O1564       O  0.28799195  0.74438433  0.72181334    -0.71100
O1565       O  0.23889449  0.73047791  0.65341894    -0.74700
Al1566     Al  0.28097955  0.70885544  0.67412568     1.49000
C1567       C  0.22877619  0.75651409  0.62455741     0.92600
O1568       O  0.29576769  0.78723428  0.55835972    -0.80900
O1569       O  0.34756691  0.74623085  0.57746562    -0.74500
Al1570     Al  0.27476833  0.74171029  0.56819548     1.90100
O1571       O  0.32353297  0.79617594  0.63615844    -0.73500
O1572       O  0.35674049  0.70529747  0.66286038    -0.73400
O1573       O  0.33681210  0.76210603  0.72043785    -0.79000
O1574       O  0.32090740  0.68355513  0.70363586    -0.77200
O1575       O  0.29795407  0.73348308  0.63055234    -1.13400
O1576       O  0.26969082  0.66969986  0.62949896    -0.72600
C1577       C  0.24806129  0.67187655  0.58922147     0.98200
C1578       C  0.31403892  0.80657606  0.59116266     0.94600
Al1579     Al  0.33823543  0.75041363  0.64821490     1.55600
O1580       O  0.24413335  0.76830939  0.59263621    -0.77200
C1581       C  0.34835189  0.68192406  0.69095471     0.98700
C1582       C  0.32980335  0.73340949  0.53669377     0.93600
O1583       O  0.30553170  0.71514173  0.54133186    -0.82500
C1584       C  0.32642585  0.83431511  0.90849181     0.29800
C1585       C  0.26916089  0.79769211  0.88904906     0.29800
C1586       C  0.31361682  0.82270098  0.85106145    -0.06400
C1587       C  0.32638565  0.79852105  0.93690523    -0.07100
C1588       C  0.29607431  0.85446307  0.92164214    -0.07000
C1589       C  0.28299854  0.80657501  0.84165240    -0.06400
C1590       C  0.29761923  0.77994732  0.92409654    -0.07100
C1591       C  0.26737963  0.83437793  0.91302948    -0.07000
C1592       C  0.27912454  0.78894729  0.79600874    -0.32400
N1593       N  0.30727418  0.78828478  0.77956710     0.14100
C1594       C  0.32859977  0.80900897  0.81210526    -0.32400
H1595       H  0.35358545  0.81162504  0.80920146     0.16000
C1596       C  0.30026002  0.74992205  0.95239048    -0.31400
N1597       N  0.32854541  0.75039125  0.48757566     0.12800
C1598       C  0.34512789  0.77992292  0.97778763    -0.31400
C1599       C  0.24153730  0.85757193  0.90524565    -0.31700
N1600       N  0.25200333  0.89098663  0.91166884     0.13300
H1601       H  0.21662257  0.85127381  0.88841173     0.15900
C1602       C  0.28491767  0.88983378  0.91764642    -0.31700
H1603       H  0.29902336  0.91272235  0.91209603     0.15900
H1604       H  0.36756566  0.78910556  0.00145322     0.15900
H1605       H  0.25784129  0.77410979  0.77826814     0.16000
H1606       H  0.28039687  0.73187427  0.95260729     0.15900
O1607       O  0.23285369  0.94871181  0.92443368    -0.82000
C1608       C  0.16541099  0.01079124  0.74912517     0.97400
O1609       O  0.18922797  0.99172238  0.76652910    -0.71100
O1610       O  0.23946314  0.97826147  0.83436341    -0.74700
Al1611     Al  0.19678658  0.95692122  0.81420615     1.49000
C1612       C  0.24967018  0.00455306  0.86339850     0.92600
O1613       O  0.18386793  0.53609717  0.93193772    -0.80900
O1614       O  0.13202258  0.99521728  0.91370187    -0.74500
Al1615     Al  0.20439485  0.49076030  0.92028277     1.90100
O1616       O  0.15546637  0.54516865  0.85485534    -0.73500
O1617       O  0.12149467  0.95407260  0.82778357    -0.73400
O1618       O  0.14076893  0.51013945  0.76963299    -0.79000
O1619       O  0.15670575  0.93177793  0.78577097    -0.77200
O1620       O  0.18042297  0.98208631  0.85852304    -1.13400
O1621       O  0.20803424  0.91815364  0.85834180    -0.72600
C1622       C  0.23030997  0.92057952  0.89771434     0.98200
C1623       C  0.16548538  0.55553448  0.90011182     0.94600
Al1624     Al  0.14027872  0.99917682  0.84234823     1.55600
O1625       O  0.23384500  0.51741649  0.89411811    -0.77200
C1626       C  0.12964836  0.93026107  0.79959419     0.98700
C1627       C  0.15014866  0.48256083  0.95402312     0.93600
O1628       O  0.17441066  0.46439260  0.94862786    -0.82500
O1629       O  0.01495975  0.71908824  0.70569541    -0.82000
C1630       C  0.14497333  0.73485340  0.81149877     0.97400
O1631       O  0.12072321  0.73501880  0.83283116    -0.71100
O1632       O  0.07680355  0.77999465  0.79585894    -0.74700
Al1633     Al  0.07465336  0.73155439  0.80550982     1.49000
C1634       C  0.06265288  0.79888654  0.75980174     0.92600
O1635       O  0.08505503  0.76418276  0.66610257    -0.80900
O1636       O  0.08012979  0.66120301  0.69454088    -0.74500
Al1637     Al  0.05141111  0.74026911  0.68761449     1.90100
O1638       O  0.11581804  0.71727936  0.66881789    -0.73500
O1639       O  0.11369214  0.66693614  0.78996062    -0.73400
O1640       O  0.14246319  0.72455580  0.76569601    -0.79000
O1641       O  0.07367580  0.68354688  0.82529598    -0.77200
O1642       O  0.07862989  0.72197292  0.74163765    -1.13400
O1643       O  0.02808522  0.73043250  0.78891329    -0.72600
C1644       C  0.00721957  0.72267254  0.74876238     0.98200
C1645       C  0.10960493  0.74911635  0.65669784     0.94600
Al1646     Al  0.11023423  0.69430680  0.73039689     1.55600
O1647       O  0.04497555  0.78503654  0.72032608    -0.77200
C1648       C  0.09823914  0.66468162  0.82539152     0.98700
C1649       C  0.06581566  0.66896408  0.64969723     0.93600
O1650       O  0.05392742  0.69982775  0.64079581    -0.82500
O1651       O  0.46529877  0.97452746  0.79405058    -0.82000
C1652       C  0.33780362  0.99403113  0.68194788     0.97400
O1653       O  0.36163274  0.98976607  0.66031704    -0.71100
O1654       O  0.40680674  0.53324449  0.69994438    -0.74700
Al1655     Al  0.40732393  0.98443542  0.69085842     1.49000
C1656       C  0.41853793  0.55285536  0.73724724     0.92600
O1657       O  0.39386811  0.51907519  0.83152158    -0.80900
O1658       O  0.39544069  0.91624699  0.79874475    -0.74500
Al1659     Al  0.42764930  0.49485617  0.80994076     1.90100
O1660       O  0.36211024  0.97315999  0.82507268    -0.73500
O1661       O  0.36400393  0.92386443  0.70309308    -0.73400
O1662       O  0.33899369  0.98438019  0.72761923    -0.79000
O1663       O  0.40650376  0.93551139  0.67126554    -0.77200
O1664       O  0.40143643  0.97661248  0.75433673    -1.13400
O1665       O  0.45367952  0.98184202  0.71018905    -0.72600
C1666       C  0.47399612  0.97644484  0.75163103     0.98200
C1667       C  0.36960767  0.50397208  0.84127430     0.94600
Al1668     Al  0.36802074  0.95117846  0.76295830     1.55600
O1669       O  0.43408616  0.53982468  0.77880187    -0.77200
C1670       C  0.38049343  0.91866785  0.66958702     0.98700
C1671       C  0.41066835  0.92303237  0.84371903     0.93600
O1672       O  0.42387598  0.95338538  0.85428298    -0.82500
C1673       C  0.08921236  0.88707160  0.81904552    -0.21500
C1674       C  0.10757965  0.89969065  0.78450082    -0.09500
C1675       C  0.10573056  0.88170150  0.73756735     0.29300
C1676       C  0.08702075  0.85088851  0.72664199    -0.21500
C1677       C  0.07075214  0.83685280  0.76294037    -0.09500
C1678       C  0.07152992  0.85560672  0.80894504     0.29400
F1679       F  0.05703309  0.84216978  0.84562345    -0.20000
H1680       H  0.09026535  0.90034201  0.85553341     0.17700
H1681       H  0.08762101  0.83630918  0.69170229     0.17700
F1682       F  0.12285470  0.89317460  0.70302964    -0.20000
C1683       C  0.14653594  0.64788381  0.88847705    -0.21500
C1684       C  0.11302733  0.64346514  0.86959192    -0.09500
C1685       C  0.09740564  0.61380781  0.88345974     0.29300
C1686       C  0.11615341  0.58592693  0.90724871    -0.21500
C1687       C  0.15024142  0.58737386  0.91520420    -0.09500
C1688       C  0.16527842  0.61971550  0.91121127     0.29400
F1689       F  0.19804652  0.62192332  0.91936659    -0.20000
H1690       H  0.15876332  0.67130506  0.87902291     0.17700
H1691       H  0.10412439  0.56095123  0.90961193     0.17700
F1692       F  0.06509080  0.60920401  0.86617860    -0.20000
C1693       C  0.29206470  0.53980340  0.83495727    -0.21500
C1694       C  0.28276002  0.51610025  0.86912390    -0.09500
C1695       C  0.30587810  0.00118039  0.90853739     0.29300
C1696       C  0.33842052  0.00441659  0.90750178    -0.21500
C1697       C  0.34743399  0.52237826  0.86705837    -0.09500
C1698       C  0.32496408  0.54432352  0.83588675     0.29400
F1699       F  0.33447811  0.56533647  0.80083840    -0.20000
H1700       H  0.27413795  0.55290911  0.80613753     0.17700
H1701       H  0.35583216  0.98849142  0.93316929     0.17700
F1702       F  0.29687472  0.98021638  0.94426555    -0.20000
C1703       C  0.38692929  0.91092592  0.91954699    -0.21500
C1704       C  0.40500414  0.89843557  0.88428082    -0.09500
C1705       C  0.40577828  0.86171674  0.87618802     0.29300
C1706       C  0.38439648  0.83946677  0.89516465    -0.21500
C1707       C  0.35937732  0.85395153  0.91661093    -0.09500
C1708       C  0.36439494  0.88878284  0.93617474     0.29400
F1709       F  0.34777451  0.90163825  0.97072467    -0.20000
H1710       H  0.38752261  0.93868197  0.92955873     0.17700
H1711       H  0.38459048  0.81147079  0.88675556     0.17700
F1712       F  0.42436292  0.84793747  0.84497249    -0.20000
C1713       C  0.21104402  0.78472466  0.90065075    -0.21500
C1714       C  0.23809704  0.77523155  0.88000289    -0.09500
C1715       C  0.23539071  0.74412067  0.85002097     0.29300
C1716       C  0.20486319  0.73062373  0.82831328    -0.21500
C1717       C  0.17697294  0.74582944  0.84026826    -0.09500
C1718       C  0.18039237  0.77127601  0.87946607     0.29400
F1719       F  0.15415114  0.78462674  0.89515367    -0.20000
H1720       H  0.21314912  0.80322811  0.93221100     0.17700
H1721       H  0.20297843  0.70864741  0.80153845     0.17700
F1722       F  0.26199989  0.72754825  0.84009762    -0.20000
C1723       C  0.38947637  0.63845355  0.67355276    -0.21500
C1724       C  0.37085678  0.65192571  0.70746059    -0.09500
C1725       C  0.37376034  0.63600749  0.75574359     0.29300
C1726       C  0.39340033  0.60599873  0.76832361    -0.21500
C1727       C  0.40968283  0.59075368  0.73249792    -0.09500
C1728       C  0.40829590  0.60797186  0.68551087     0.29400
F1729       F  0.42352083  0.59396352  0.64978541    -0.20000
H1730       H  0.38799173  0.65038358  0.63632666     0.17700
H1731       H  0.39368641  0.59296036  0.80443159     0.17700
F1732       F  0.35708745  0.64893661  0.79027193    -0.20000
C1733       C  0.36319258  0.83854398  0.58638916    -0.21500
C1734       C  0.32902037  0.83906474  0.57830107    -0.09500
C1735       C  0.31343318  0.87065529  0.58501226     0.29300
C1736       C  0.33165603  0.89890498  0.60923126    -0.21500
C1737       C  0.36547933  0.89595212  0.62628339    -0.09500
C1738       C  0.38153172  0.86688727  0.61084565     0.29400
F1739       F  0.41404060  0.86328797  0.62689780    -0.20000
H1740       H  0.37568384  0.81397156  0.58277372     0.17700
H1741       H  0.31885730  0.92115161  0.62122437     0.17700
F1742       F  0.28067901  0.87167064  0.57848329    -0.20000
C1743       C  0.14010701  0.76023413  0.58992282    -0.21500
C1744       C  0.13386605  0.76903073  0.63799301    -0.09500
C1745       C  0.15808238  0.78460405  0.67563239     0.29300
C1746       C  0.18987914  0.78435379  0.66909912    -0.21500
C1747       C  0.19681194  0.77022991  0.62403989    -0.09500
C1748       C  0.17176240  0.76110603  0.58265272     0.29400
F1749       F  0.17843183  0.74769923  0.53852429    -0.20000
H1750       H  0.12142398  0.74862139  0.56049917     0.17700
H1751       H  0.20925260  0.79162347  0.70094791     0.17700
F1752       F  0.15199721  0.79376162  0.72210422    -0.20000
C1753       C  0.11442242  0.63786407  0.55902454    -0.21500
C1754       C  0.11890518  0.60269356  0.57567262    -0.09500
C1755       C  0.09318430  0.58710270  0.59411701     0.29300
C1756       C  0.07121613  0.60868985  0.61331664    -0.21500
C1757       C  0.07199253  0.64552941  0.60775054    -0.09500
C1758       C  0.09078026  0.65909423  0.57444726     0.29400
F1759       F  0.08973411  0.69396967  0.56326708    -0.20000
H1760       H  0.13018453  0.64971215  0.53684676     0.17700
H1761       H  0.05584765  0.59702226  0.63661478     0.17700
F1762       F  0.09187013  0.55157114  0.59985026    -0.20000
C1763       C  0.25927701  0.51270058  0.58853222    -0.21500
C1764       C  0.24489345  0.53591639  0.61888109    -0.09500
C1765       C  0.26471531  0.55029241  0.66380111     0.29300
C1766       C  0.29537156  0.53723300  0.68200313    -0.21500
C1767       C  0.30813569  0.51108282  0.65519862    -0.09500
C1768       C  0.29085400  0.00015944  0.60672775     0.29400
F1769       F  0.30405326  0.97715055  0.57760641    -0.20000
H1770       H  0.24679774  0.00486572  0.55064555     0.17700
H1771       H  0.30920387  0.54738148  0.71771966     0.17700
F1772       F  0.25445354  0.57713273  0.69065025    -0.20000
C1773       C  0.91118973  0.85549259  0.68658419    -0.21500
C1774       C  0.91224619  0.83919308  0.73406533    -0.09500
C1775       C  0.89543058  0.85508126  0.76881563     0.29300
C1776       C  0.87551555  0.88453549  0.75420758    -0.21500
C1777       C  0.87304810  0.89953269  0.70555550    -0.09500
C1778       C  0.89227450  0.88565674  0.67270772     0.29400
F1779       F  0.89080828  0.89949663  0.62544111    -0.20000
H1780       H  0.92330820  0.84337458  0.65871867     0.17700
H1781       H  0.86145291  0.89517672  0.78052597     0.17700
F1782       F  0.89575543  0.84024995  0.81503458    -0.20000
C1783       C  0.80877005  0.61753539  0.59132002    -0.21500
C1784       C  0.82660458  0.58902707  0.57897215    -0.09500
C1785       C  0.86047357  0.59256836  0.58431226     0.29300
C1786       C  0.87662769  0.62156039  0.61031950    -0.21500
C1787       C  0.85912728  0.64630348  0.63234402    -0.09500
C1788       C  0.82486210  0.64555807  0.61957997     0.29400
F1789       F  0.80687804  0.66921249  0.64018139    -0.20000
H1790       H  0.78283095  0.61507262  0.58807004     0.17700
H1791       H  0.90285849  0.62189272  0.61938875     0.17700
F1792       F  0.87865268  0.56463692  0.57548704    -0.20000
C1793       C  0.67444111  0.00915075  0.58475649    -0.21500
C1794       C  0.69972255  0.01879329  0.62535888    -0.09500
C1795       C  0.69321749  0.53227105  0.67109214     0.29300
C1796       C  0.66183734  0.53072052  0.67916971    -0.21500
C1797       C  0.63762086  0.51487631  0.64199321    -0.09500
C1798       C  0.64315218  0.00677955  0.59328838     0.29400
F1799       F  0.61948232  0.99227216  0.55671272    -0.20000
H1800       H  0.67953214  0.99885048  0.54916529     0.17700
H1801       H  0.65749899  0.53704094  0.71694391     0.17700
F1802       F  0.71763020  0.54260464  0.70990132    -0.20000
C1803       C  0.59470861  0.83633375  0.59864747    -0.21500
C1804       C  0.61907354  0.85212371  0.57727695    -0.09500
C1805       C  0.61321909  0.88705447  0.55965062     0.29300
C1806       C  0.59051174  0.90809951  0.57798375    -0.21500
C1807       C  0.57309467  0.89432790  0.61302166    -0.09500
C1808       C  0.57297942  0.85749250  0.61905198     0.29400
F1809       F  0.55468009  0.84258415  0.64950969    -0.20000
H1810       H  0.59551182  0.80827651  0.60628573     0.17700
H1811       H  0.58944289  0.93603969  0.56967510     0.17700
F1812       F  0.62950850  0.90117911  0.52587540    -0.20000
C1813       C  0.76000932  0.76226556  0.59208819    -0.21500
C1814       C  0.74579655  0.78767066  0.61917108    -0.09500
C1815       C  0.76573022  0.80480095  0.66187066     0.29300
C1816       C  0.79621046  0.79209978  0.68233490    -0.21500
C1817       C  0.80855380  0.76376422  0.65921007    -0.09500
C1818       C  0.79151711  0.75047131  0.61188727     0.29400
F1819       F  0.80494074  0.72582478  0.58549692    -0.20000
H1820       H  0.74759210  0.75224925  0.55538202     0.17700
H1821       H  0.81017084  0.80427659  0.71673282     0.17700
F1822       F  0.75548183  0.83371897  0.68459096    -0.20000
C1823       C  0.61176520  0.63296984  0.73856762    -0.21500
C1824       C  0.61276789  0.65094888  0.78519066    -0.09500
C1825       C  0.59321502  0.63859718  0.81836103     0.29300
C1826       C  0.57531664  0.60742032  0.80699790    -0.21500
C1827       C  0.57557080  0.58839645  0.76171478    -0.09500
C1828       C  0.59295041  0.60224474  0.72650131     0.29400
F1829       F  0.59410649  0.58447601  0.68254257    -0.20000
H1830       H  0.62620917  0.64217961  0.71209400     0.17700
H1831       H  0.56276687  0.59688896  0.83519794     0.17700
F1832       F  0.59335131  0.65506118  0.86387559    -0.20000
C1833       C  0.61606355  0.83357675  0.90590785    -0.21500
C1834       C  0.65017593  0.83659923  0.91728271    -0.09500
C1835       C  0.66408542  0.87005042  0.91769732     0.29300
C1836       C  0.64464627  0.89851416  0.89727003    -0.21500
C1837       C  0.61147413  0.89346921  0.87585510    -0.09500
C1838       C  0.59669206  0.86181479  0.88450843     0.29400
F1839       F  0.56476004  0.85634870  0.86469152    -0.20000
H1840       H  0.60478103  0.80785127  0.90494844     0.17700
H1841       H  0.65634504  0.92315142  0.89133860     0.17700
F1842       F  0.69676298  0.87385408  0.92891124    -0.20000
C1843       C  0.80990775  0.75903473  0.91677699    -0.21500
C1844       C  0.78613970  0.77027503  0.87528162    -0.09500
C1845       C  0.79449357  0.79056332  0.83645270     0.29300
C1846       C  0.82709721  0.79525740  0.83575269    -0.21500
C1847       C  0.85047252  0.77672223  0.87071787    -0.09500
C1848       C  0.84234823  0.76230250  0.91457527     0.29400
F1849       F  0.86498252  0.74528368  0.94964294    -0.20000
H1850       H  0.80334079  0.74406025  0.94760874     0.17700
H1851       H  0.83354974  0.80727540  0.80253857     0.17700
F1852       F  0.77141742  0.80249531  0.79698851    -0.20000
C1853       C  0.88715621  0.58738081  0.89464073    -0.21500
C1854       C  0.86236215  0.60099337  0.91739832    -0.09500
C1855       C  0.86763215  0.63506459  0.93944089     0.29300
C1856       C  0.88965487  0.65807511  0.92341029    -0.21500
C1857       C  0.90700338  0.64696754  0.88644846    -0.09500
C1858       C  0.90813591  0.61052001  0.87637574     0.29400
F1859       F  0.92639646  0.59806594  0.84374158    -0.20000
H1860       H  0.88752686  0.55960518  0.88499821     0.17700
H1861       H  0.88996928  0.68558652  0.93478181     0.17700
F1862       F  0.85144547  0.64639932  0.97546149    -0.20000
C1863       C  0.68303618  0.51859642  0.88458666    -0.21500
C1864       C  0.67921080  0.49400204  0.84425191    -0.09500
C1865       C  0.70700706  0.97962219  0.83062686     0.29300
C1866       C  0.73734475  0.99366705  0.85153536    -0.21500
C1867       C  0.74011409  0.52449427  0.88173442    -0.09500
C1868       C  0.71360017  0.53289031  0.90463808     0.29400
F1869       F  0.71722051  0.55334581  0.94749035    -0.20000
H1870       H  0.66237742  0.52746654  0.89956743     0.17700
H1871       H  0.75846516  0.98162523  0.84148283     0.17700
F1872       F  0.70489293  0.95260955  0.79623560    -0.20000
loop_ 
_geom_bond_atom_site_label_1 
_geom_bond_atom_site_label_2 
_geom_bond_distance 
_geom_bond_site_symmetry_2 
_ccdc_geom_bond_type 
C1            C3   1.576       .  S
C1            C5   1.593       .  S
C1            C4   1.556       .  S
C1          C450   1.548       .  S
C2            C6   1.541       .  S
C2            C8   1.531       .  S
C2            C7   1.516       .  S
C2          C463   1.537       .  S
C3           C11   1.419       .  A
C3            C6   1.406       .  A
C4           C15   1.400       .  A
C4            C7   1.381       .  A
C5           C19   1.420       .  A
C5            C8   1.401       .  A
C6            C9   1.366       .  A
C7           C13   1.359   1_545  A
C8           C16   1.383       .  A
C9           N10   1.348       .  A
C9          H958   1.077       .  S
N10          C11   1.358       .  A
N10        C1006   1.450       .  S
C11          H12   1.078       .  S
C13         N482   1.356       .  A
C13         H959   1.083       .  S
N14         C481   1.356       .  A
N14         C483   1.374   1_565  A
N14          C89   1.453   1_556  S
C15         N482   1.374   1_545  A
C15          H21   1.077       .  S
C16          N17   1.343       .  A
C16          H18   1.082       .  S
N17          C19   1.370       .  A
N17          C39   1.455       .  S
C19          H20   1.081       .  S
H22         C945   1.077       .  S
H23         C949   1.083       .  S
O24          C39   1.273       .  A
O24         Al32   2.003       .  S
C25          N55   1.446       .  S
C25          O35   1.269       .  A
C25          O26   1.249       .  A
O26         Al28   1.830       .  S
O27          C29   1.274       .  A
O27         Al28   1.942       .  S
Al28         O36   1.962       .  S
Al28         O38   1.886       .  S
Al28         O37   1.757       .  S
C29          O42   1.253       .  A
C29         C440   1.442       .  S
O30          C40   1.271       .  A
O30         Al32   1.997       .  S
O31          C44   1.277       .  A
O31         Al41   2.007       .  S
Al32         O45   1.896       .  S
Al32         O42   1.845       .  S
Al32         O37   1.775       .  S
O33          C40   1.252       .  A
O33         Al41   1.857       .  S
O34          C43   1.260       .  A
O34         Al41   1.872       .  S
O35         Al41   1.981       .  S
O36          C43   1.275       .  A
O37         Al41   1.785       .  S
O38          C39   1.257       .  A
C40         C430   1.467       .  S
C43         C420   1.487       .  S
C44          N59   1.455       .  S
C44          O45   1.266       .  A
C46          C48   1.571       .  S
C46          C50   1.591       .  S
C46          C49   1.573       .  S
C46         C400   1.546       .  S
C47          C51   1.522       .  S
C47          C53   1.513       .  S
C47          C52   1.529       .  S
C47         C410   1.521       .  S
C48          C56   1.421       .  A
C48          C51   1.392       .  A
C49          C60   1.399       .  A
C49          C52   1.397       .  A
C50          C64   1.419       .  A
C50          C53   1.388       .  A
C51          C54   1.361       .  A
C52          C58   1.365       .  A
C53          C61   1.371       .  A
C54          N55   1.344       .  A
C54          H67   1.084       .  S
N55          C56   1.362       .  A
C56          H57   1.079       .  S
C58         N527   1.358       .  A
C58         H536   1.078       .  S
N59         C526   1.358       .  A
N59         C528   1.374       .  A
C60         N527   1.374       .  A
C60          H66   1.080   1_554  S
C61          N62   1.338       .  A
C61          H63   1.083       .  S
N62          C64   1.375       .  A
N62          C84   1.447       .  S
C64          H65   1.081       .  S
H68         C526   1.078       .  S
O69          C84   1.265       .  A
O69       Al1013   1.971       .  S
C70         N946   1.450       .  S
C70          O71   1.248       .  A
C70        O1016   1.271       .  A
O71         Al73   1.828       .  S
O72          C74   1.273       .  A
O72         Al73   1.925       .  S
Al73         O81   1.952       .  S
Al73         O83   1.895       .  S
Al73         O82   1.760       .  S
C74        O1023   1.256       .  A
C74         C390   1.440       .  S
O75          C85   1.265       .  A
O75         Al77   1.970   1_545  S
O76        C1025   1.278       .  A
O76         Al86   2.007       .  S
Al77         O90   1.894       .  S
Al77         O87   1.854   1_565  S
Al77       O1005   1.971       .  S
Al77       O1018   1.776       .  S
O78          C85   1.251       .  A
O78       Al1022   1.843   1_545  S
O79          C88   1.260       .  A
O79         Al86   1.882       .  S
O80        C1006   1.271       .  A
O80       Al1022   1.986   1_545  S
O81          C88   1.272       .  A
O82         Al86   1.789       .  S
O82       Al1013   1.776       .  S
O83          C84   1.261       .  A
C85         C380   1.452       .  S
Al86       O1014   1.843       .  S
Al86       O1016   1.986       .  S
O87        C1010   1.256       .  A
C88         C373   1.485       .  S
C89          O90   1.264       .  A
C89        O1012   1.278       .  A
O91         C106   1.263       .  A
O91       Al1035   1.882       .  S
C92         O102   1.260       .  A
C92          O93   1.269       .  A
C92        C1396   1.470       .  S
O93         Al95   1.938       .  S
O94          C96   1.252       .  A
O94       Al1031   1.867   1_545  S
Al95        O103   1.910       .  S
Al95        O105   1.939       .  S
Al95       O1030   1.867       .  S
Al95        O104   1.781       .  S
C96         O109   1.266       .  A
C96         C423   1.480       .  S
O97         C107   1.249   1_545  A
O97         Al99   1.862   1_545  S
O98         C111   1.260       .  A
O98        Al108   1.894       .  S
Al99        O109   1.943   1_565  S
Al99       O1027   1.882       .  S
Al99       O1048   1.978       .  S
Al99       O1040   1.794       .  S
O100       C1043   1.263       .  A
O100       Al108   1.921       .  S
O101        C110   1.257       .  A
O101       Al108   1.884       .  S
O102       Al108   1.866       .  S
O103        C110   1.261       .  A
O104       Al108   1.767       .  S
O104      Al1035   1.794       .  S
O105        C106   1.273       .  A
C106        C262   1.467       .  S
C107       O1036   1.263       .  A
C107        C393   1.439   1_565  S
C110        C433   1.467       .  S
C111        O112   1.274       .  A
C111        C403   1.487       .  S
O112      Al1035   1.978       .  S
O113        C128   1.260       .  A
O113       Al121   1.885       .  S
C114        O124   1.267       .  A
C114        O115   1.265       .  A
C114        C413   1.452       .  S
O115       Al117   1.925       .  S
O116        C118   1.253       .  A
O116       Al117   1.858       .  S
Al117       O125   1.914       .  S
Al117       O127   1.908       .  S
Al117       O126   1.787       .  S
C118        O131   1.268       .  A
C118        C370   1.480       .  S
O119        C129   1.246       .  A
O119       Al121   1.877       .  S
O120        C133   1.263       .  A
O120       Al130   1.882       .  S
Al121       O134   1.991       .  S
Al121       O131   1.941       .  S
Al121       O126   1.787       .  S
O122        C129   1.255       .  A
O122       Al130   1.900       .  S
O123        C132   1.253       .  A
O123       Al130   1.866       .  S
O124       Al130   1.884       .  S
O125        C132   1.264       .  A
O126       Al130   1.764       .  S
O127        C128   1.264       .  A
C128        C240   1.462   1_655  S
C129        C443   1.443       .  S
C132        C383   1.466       .  S
C133        O134   1.280       .  A
C133        C453   1.482       .  S
C135        C137   1.571       .  S
C135        C139   1.590       .  S
C135        C138   1.570       .  S
C135        C350   1.544       .  S
C136        C140   1.523       .  S
C136        C142   1.514       .  S
C136        C141   1.528       .  S
C136        C360   1.525       .  S
C137        C145   1.419       .  A
C137        C140   1.394       .  A
C138        C149   1.397       .  A
C138        C141   1.396       .  A
C139        C153   1.418       .  A
C139        C142   1.388       .  A
C140        C143   1.360       .  A
C141        C147   1.366       .  A
C142        C150   1.373       .  A
C143        N144   1.347       .  A
C143       H1092   1.084       .  S
N144        C145   1.361       .  A
N144       C1140   1.447       .  S
C145        H146   1.079       .  S
C147        N616   1.359   1_545  A
C147       H1561   1.079   1_545  S
N148        C615   1.359   1_565  A
N148        C617   1.372   1_565  A
N148        C223   1.454       .  S
C149        N616   1.372   1_545  A
C149        H155   1.080   1_554  S
C150        N151   1.342       .  A
C150        H152   1.083       .  S
N151        C153   1.375       .  A
N151        C173   1.449       .  S
C153        H154   1.081       .  S
H156       C1079   1.084       .  S
H157       C1551   1.079       .  S
O158        C173   1.268       .  A
O158       Al166   1.982       .  S
C159        N189   1.448       .  S
C159        O169   1.271       .  A
C159        O160   1.247       .  A
O160       Al162   1.824       .  S
O161        C163   1.273       .  A
O161       Al162   1.931       .  S
Al162       O170   1.959       .  S
Al162       O172   1.891       .  S
Al162       O171   1.759       .  S
C163        O176   1.256       .  A
C163        C343   1.442       .  S
O164        C174   1.268       .  A
O164       Al166   1.982       .  S
O165        C178   1.278       .  A
O165       Al175   2.009       .  S
Al166       O179   1.892       .  S
Al166       O176   1.856       .  S
Al166       O171   1.775       .  S
O167        C174   1.250       .  A
O167       Al175   1.847       .  S
O168        C177   1.261       .  A
O168       Al175   1.887       .  S
O169       Al175   1.984       .  S
O170        C177   1.273       .  A
O171       Al175   1.786       .  S
O172        C173   1.260       .  A
C174        C330   1.459       .  S
C177        C320   1.489       .  S
C178        N193   1.454   1_554  S
C178        O179   1.264       .  A
C180        C182   1.573       .  S
C180        C184   1.589       .  S
C180        C183   1.558       .  S
C180        C303   1.552       .  S
C181        C185   1.537       .  S
C181        C187   1.532       .  S
C181        C186   1.520       .  S
C181        C310   1.539       .  S
C182        C190   1.417       .  A
C182        C185   1.404       .  A
C183        C194   1.401       .  A
C183        C186   1.382       .  A
C184        C198   1.416       .  A
C184        C187   1.408       .  A
C185        C188   1.362       .  A
C186        C192   1.361       .  A
C187        C195   1.382       .  A
C188        N189   1.349       .  A
C188        H201   1.080       .  S
N189        C190   1.358       .  A
C190        H191   1.078       .  S
C192        N661   1.357       .  A
C192        H202   1.083       .  S
N193        C660   1.357       .  A
N193        C662   1.374       .  A
C194        N661   1.374       .  A
C194        H200   1.080       .  S
C195        N196   1.338       .  A
C195        H197   1.081       .  S
N196        C198   1.366       .  A
N196        C218   1.447       .  S
C198        H199   1.080       .  S
O203        C218   1.268       .  A
O203      Al1147   1.983       .  S
C204       N1080   1.447       .  S
C204        O205   1.248       .  A
C204       O1150   1.272       .  A
O205       Al207   1.820       .  S
O206        C208   1.275       .  A
O206       Al207   1.944       .  S
Al207       O215   1.950       .  S
Al207       O217   1.886       .  S
Al207       O216   1.759       .  S
C208       O1157   1.254       .  A
C208       C1226   1.440       .  S
O209        C219   1.265       .  A
O209       Al211   1.972   1_545  S
O210       C1159   1.279       .  A
O210       Al220   2.010       .  S
Al211       O224   1.892       .  S
Al211       O221   1.850   1_565  S
Al211      O1139   1.983       .  S
Al211      O1152   1.772       .  S
O212        C219   1.253       .  A
O212      Al1156   1.858   1_545  S
O213        C222   1.261       .  A
O213       Al220   1.886       .  S
O214       C1140   1.272       .  A
O214      Al1156   1.989   1_545  S
O215        C222   1.272       .  A
O216       Al220   1.782       .  S
O216      Al1147   1.772       .  S
O217        C218   1.259       .  A
C219        C283   1.458       .  S
Al220      O1148   1.858       .  S
Al220      O1150   1.989       .  S
O221       C1144   1.254       .  A
C222        C270   1.486       .  S
C223        O224   1.265       .  A
C223       O1146   1.279       .  A
O225        C240   1.263       .  A
O225       Al233   1.886       .  S
C226        O236   1.262       .  A
C226        O227   1.269       .  A
C226        C313   1.467       .  S
O227       Al229   1.934       .  S
O228        C230   1.251       .  A
O228       Al229   1.858       .  S
Al229       O237   1.899       .  S
Al229       O239   1.924       .  S
Al229       O238   1.779       .  S
C230        O243   1.267       .  A
C230        C273   1.475       .  S
O231        C241   1.251       .  A
O231       Al233   1.874       .  S
O232        C245   1.260       .  A
O232       Al242   1.892       .  S
Al233       O246   1.983       .  S
Al233       O243   1.943       .  S
Al233       O238   1.790       .  S
O234        C241   1.263       .  A
O234       Al242   1.921       .  S
O235        C244   1.257       .  A
O235       Al242   1.883       .  S
O236       Al242   1.871       .  S
O237        C244   1.258       .  A
O238       Al242   1.767       .  S
O239        C240   1.270       .  A
C241        C340   1.444       .  S
C244        C280   1.460       .  S
C245        O246   1.276       .  A
C245        C353   1.486       .  S
O247        C262   1.261       .  A
O247      Al1191   1.889       .  S
C248        O258   1.265       .  A
C248        O249   1.268       .  A
C248       C1299   1.459       .  S
O249       Al251   1.943       .  S
O250        C252   1.253       .  A
O250      Al1187   1.862   1_545  S
Al251       O259   1.918       .  S
Al251       O261   1.920       .  S
Al251      O1186   1.862       .  S
Al251       O260   1.787       .  S
C252        O265   1.268       .  A
C252        C323   1.482       .  S
O253        C263   1.248       .  A
O253       Al255   1.879   1_545  S
O254        C267   1.262       .  A
O254       Al264   1.886       .  S
Al255       O265   1.943   1_565  S
Al255      O1183   1.889       .  S
Al255      O1204   1.999       .  S
Al255      O1196   1.790       .  S
O256       C1199   1.259       .  A
O256       Al264   1.908       .  S
O257        C266   1.255       .  A
O257       Al264   1.872       .  S
O258       Al264   1.873       .  S
O259        C266   1.263       .  A
O260       Al264   1.763       .  S
O260      Al1191   1.790       .  S
O261        C262   1.268       .  A
C263       O1192   1.259   1_545  A
C263        C293   1.446       .  S
C266        C333   1.468       .  S
C267        O268   1.281       .  A
C267        C300   1.489       .  S
O268      Al1191   1.999       .  S
C269        C270   1.407       .  A
C269        C274   1.400       .  A
C269        H276   1.083       .  S
C270        C271   1.407       .  A
C271        C272   1.403       .  A
C271        F278   1.357       .  S
C272        C273   1.405       .  A
C272        H277   1.083       .  S
C273        C274   1.406       .  A
C274        F275   1.358       .  S
C279        C280   1.409       .  A
C279        C284   1.393       .  A
C279        H286   1.084       .  S
C280        C281   1.393       .  A
C281        C282   1.394       .  A
C281        F288   1.357       .  S
C282        C283   1.411       .  A
C282        H287   1.082       .  S
C283        C284   1.394       .  A
C284        F285   1.357       .  S
C289        C290   1.397       .  A
C289        C294   1.394       .  A
C289        H296   1.083       .  S
C290       C1227   1.400       .  A
C290       C1144   1.440       .  S
C291        C292   1.385       .  A
C291       C1226   1.400       .  A
C291        F298   1.358       .  S
C292       C1229   1.396       .  A
C292        H297   1.081       .  S
C293        C294   1.401       .  A
C293       C1228   1.396       .  A
C294        F295   1.354       .  S
C299        C300   1.406       .  A
C299        C304   1.409       .  A
C299        H306   1.081       .  S
C300        C301   1.406       .  A
C301        C302   1.406       .  A
C301        F308   1.357       .  S
C302        C303   1.409       .  A
C302        H307   1.082       .  S
C303        C304   1.414       .  A
C304        F305   1.355       .  S
C309        C310   1.411       .  A
C309        C314   1.395       .  A
C309        H316   1.079       .  S
C310        C311   1.409       .  A
C311        C312   1.394       .  A
C311        F318   1.358       .  S
C312        C313   1.403       .  A
C312        H317   1.084       .  S
C313        C314   1.400       .  A
C314        F315   1.358       .  S
C319        C320   1.407       .  A
C319        C324   1.401       .  A
C319        H326   1.083       .  S
C320        C321   1.408       .  A
C321        C322   1.407       .  A
C321        F328   1.357       .  S
C322        C323   1.406       .  A
C322        H327   1.083       .  S
C323        C324   1.407       .  A
C324        F325   1.358       .  S
C329        C330   1.414       .  A
C329        C334   1.399       .  A
C329        H336   1.082       .  S
C330        C331   1.392       .  A
C331        C332   1.392       .  A
C331        F338   1.358       .  S
C332        C333   1.410       .  A
C332        H337   1.081       .  S
C333        C334   1.394       .  A
C334        F335   1.357       .  S
C339        C340   1.398       .  A
C339        C344   1.389       .  A
C339        H346   1.081       .  S
C340        C341   1.402       .  A
C341        C342   1.388       .  A
C341        F348   1.358       .  S
C342        C343   1.396       .  A
C342        H347   1.084       .  S
C343        C344   1.402       .  A
C344        F345   1.359       .  S
C349        C350   1.407       .  A
C349        C354   1.404       .  A
C349        H356   1.077       .  S
C350        C351   1.412       .  A
C351        C352   1.406       .  A
C351        F358   1.357       .  S
C352        C353   1.405       .  A
C352        H357   1.083       .  S
C353        C354   1.407       .  A
C354        F355   1.354       .  S
C359        C360   1.409       .  A
C359       C1300   1.404       .  A
C359       H1302   1.077       .  S
C360        C361   1.416       .  A
C361        C362   1.377       .  A
C361        F368   1.359       .  S
C362        C363   1.388       .  A
C362        H367   1.077       .  S
C363       C1300   1.405       .  A
C363       C1184   1.459   1_545  S
C364       C1295   1.404       .  A
C364       C1299   1.405       .  A
C364        F365   1.356       .  S
H366       C1295   1.077       .  S
C369        C370   1.405       .  A
C369        C374   1.400       .  A
C369        H376   1.084       .  S
C370        C371   1.409       .  A
C371        C372   1.404       .  A
C371        F378   1.355       .  S
C372        C373   1.404       .  A
C372        H377   1.083       .  S
C373        C374   1.409       .  A
C374        F375   1.358       .  S
C379        C380   1.391       .  A
C379        C384   1.389       .  A
C379        H386   1.084       .  S
C380        C381   1.413       .  A
C381        C382   1.394       .  A
C381        F388   1.353       .  S
C382        C383   1.391       .  A
C382        H387   1.083       .  S
C383        C384   1.416       .  A
C384        F385   1.357       .  S
C389        C390   1.400       .  A
C389        C394   1.389       .  A
C389        H396   1.084       .  S
C390       C1327   1.396       .  A
C391        C392   1.386       .  A
C391       C1326   1.396       .  A
C391        F398   1.356       .  S
C392        C393   1.399       .  A
C392        H397   1.085       .  S
C393       C1330   1.398       .  A
C394       C1329   1.398       .  A
C394        F395   1.356       .  S
C399        C400   1.410       .  A
C399        C404   1.405       .  A
C399        H406   1.082       .  S
C400        C401   1.411       .  A
C401        C402   1.406       .  A
C401        F408   1.354       .  S
C402        C403   1.406       .  A
C402        H407   1.081       .  S
C403        C404   1.405       .  A
C404        F405   1.357       .  S
C409        C410   1.404       .  A
C409        C414   1.400       .  A
C409        H416   1.076       .  S
C410        C411   1.420       .  A
C411        C412   1.377       .  A
C411        F418   1.359       .  S
C412        C413   1.386       .  A
C412        H417   1.082       .  S
C413        C414   1.406       .  A
C414        F415   1.356       .  S
C419        C420   1.405       .  A
C419        C424   1.406       .  A
C419        H426   1.083       .  S
C420        C421   1.411       .  A
C421        C422   1.399       .  A
C421        F428   1.358       .  S
C422        C423   1.402       .  A
C422        H427   1.084       .  S
C423        C424   1.410       .  A
C424        F425   1.356       .  S
C429        C430   1.413       .  A
C429        C434   1.397       .  A
C429        H436   1.082       .  S
C430        C431   1.395       .  A
C431        C432   1.398       .  A
C431        F438   1.357       .  S
C432        C433   1.411       .  A
C432        H437   1.084       .  S
C433        C434   1.394       .  A
C434        F435   1.357       .  S
C439        C440   1.400       .  A
C439        C444   1.388       .  A
C439        H446   1.084       .  S
C440        C441   1.396       .  A
C441        C442   1.392       .  A
C441        F448   1.357       .  S
C442        C443   1.401       .  A
C442        H447   1.082       .  S
C443        C444   1.399       .  A
C444        F445   1.357       .  S
C449        C450   1.409       .  A
C449        C454   1.405       .  A
C449        H456   1.081       .  S
C450        C451   1.411       .  A
C451        C452   1.406       .  A
C451        F458   1.355       .  S
C452        C453   1.405       .  A
C452        H457   1.081       .  S
C453        C454   1.406       .  A
C454        F455   1.357       .  S
C459        C460   1.400   1_545  A
C459        C464   1.398       .  A
C459        H466   1.083       .  S
C460       C1397   1.406       .  A
C460       C1028   1.470       .  S
C461        C462   1.391       .  A
C461       C1396   1.406       .  A
C461        F468   1.358       .  S
C462       C1399   1.403       .  A
C462        H467   1.082       .  S
C463        C464   1.416       .  A
C463       C1398   1.403   1_545  A
C464        F465   1.357       .  S
C469        C471   1.576       .  S
C469        C473   1.593       .  S
C469        C472   1.556       .  S
C469        C918   1.548       .  S
C470        C474   1.541       .  S
C470        C476   1.531       .  S
C470        C475   1.516       .  S
C470        C931   1.537       .  S
C471        C479   1.419       .  A
C471        C474   1.406       .  A
C472        C483   1.400       .  A
C472        C475   1.381       .  A
C473        C487   1.420       .  A
C473        C476   1.401       .  A
C474        C477   1.366       .  A
C475        C481   1.359   1_545  A
C476        C484   1.383       .  A
C477        N478   1.348       .  A
C477       H1426   1.077       .  S
N478        C479   1.358       .  A
N478       C1474   1.450       .  S
C479        H480   1.078       .  S
C481       H1427   1.083       .  S
N482        C557   1.453       .  S
C483        H489   1.077       .  S
C484        N485   1.343       .  A
C484        H486   1.082       .  S
N485        C487   1.370       .  A
N485        C507   1.455       .  S
C487        H488   1.081       .  S
H490       C1413   1.077       .  S
H491       C1417   1.083       .  S
O492        C507   1.273       .  A
O492       Al500   2.003       .  S
C493        N523   1.446       .  S
C493        O503   1.269       .  A
C493        O494   1.249       .  A
O494       Al496   1.830       .  S
O495        C497   1.274       .  A
O495       Al496   1.942       .  S
Al496       O504   1.962       .  S
Al496       O506   1.886       .  S
Al496       O505   1.757       .  S
C497        O510   1.253       .  A
C497        C908   1.442       .  S
O498        C508   1.271       .  A
O498       Al500   1.997       .  S
O499        C512   1.277       .  A
O499       Al509   2.007       .  S
Al500       O513   1.896       .  S
Al500       O510   1.845       .  S
Al500       O505   1.775       .  S
O501        C508   1.252       .  A
O501       Al509   1.857       .  S
O502        C511   1.260       .  A
O502       Al509   1.872       .  S
O503       Al509   1.981       .  S
O504        C511   1.275       .  A
O505       Al509   1.785       .  S
O506        C507   1.257       .  A
C508        C898   1.467       .  S
C511        C888   1.487       .  S
C512        N527   1.455   1_556  S
C512        O513   1.266       .  A
C514        C516   1.571       .  S
C514        C518   1.591       .  S
C514        C517   1.573       .  S
C514        C868   1.546       .  S
C515        C519   1.522       .  S
C515        C521   1.513       .  S
C515        C520   1.529       .  S
C515        C878   1.521       .  S
C516        C524   1.421       .  A
C516        C519   1.392       .  A
C517        C528   1.399       .  A
C517        C520   1.397       .  A
C518        C532   1.419       .  A
C518        C521   1.388       .  A
C519        C522   1.361       .  A
C520        C526   1.365       .  A
C521        C529   1.371       .  A
C522        N523   1.344       .  A
C522        H535   1.084       .  S
N523        C524   1.362       .  A
C524        H525   1.079       .  S
C528        H534   1.080       .  S
C529        N530   1.338       .  A
C529        H531   1.083       .  S
N530        C532   1.375       .  A
N530        C552   1.447       .  S
C532        H533   1.081       .  S
O537        C552   1.265       .  A
O537      Al1481   1.971       .  S
C538       N1414   1.450       .  S
C538       O1484   1.271       .  A
C538        O539   1.248       .  A
O539       Al541   1.828       .  S
O540        C542   1.273       .  A
O540       Al541   1.925       .  S
Al541       O549   1.952       .  S
Al541       O551   1.895       .  S
Al541       O550   1.760       .  S
C542       O1491   1.256       .  A
C542        C858   1.440       .  S
O543        C553   1.265       .  A
O543       Al545   1.970   1_545  S
O544       C1493   1.278       .  A
O544       Al554   2.007       .  S
Al545      O1473   1.971       .  S
Al545       O558   1.894       .  S
Al545       O555   1.854   1_565  S
Al545      O1486   1.776       .  S
O546        C553   1.251       .  A
O546      Al1490   1.843   1_545  S
O547        C556   1.260       .  A
O547       Al554   1.882       .  S
O548       C1474   1.271       .  A
O548      Al1490   1.986   1_545  S
O549        C556   1.272       .  A
O550      Al1481   1.776       .  S
O550       Al554   1.789       .  S
O551        C552   1.261       .  A
C553        C848   1.452       .  S
Al554      O1482   1.843       .  S
Al554      O1484   1.986       .  S
O555       C1478   1.256       .  A
C556        C841   1.485       .  S
C557       O1480   1.278       .  A
C557        O558   1.264       .  A
O559        C574   1.263       .  A
O559      Al1503   1.882       .  S
C560        O570   1.260       .  A
C560        O561   1.269       .  A
C560       C1864   1.470       .  S
O561       Al563   1.938       .  S
O562        C564   1.252       .  A
O562      Al1499   1.867   1_545  S
Al563      O1498   1.867       .  S
Al563       O571   1.910       .  S
Al563       O573   1.939       .  S
Al563       O572   1.781       .  S
C564        O577   1.266       .  A
C564        C891   1.480       .  S
O565        C575   1.249   1_545  A
O565       Al567   1.862   1_545  S
O566        C579   1.260       .  A
O566       Al576   1.894       .  S
Al567      O1495   1.882       .  S
Al567      O1516   1.978       .  S
Al567       O577   1.943   1_565  S
Al567      O1508   1.794       .  S
O568       C1511   1.263       .  A
O568       Al576   1.921       .  S
O569        C578   1.257       .  A
O569       Al576   1.884       .  S
O570       Al576   1.866       .  S
O571        C578   1.261       .  A
O572      Al1503   1.794       .  S
O572       Al576   1.767       .  S
O573        C574   1.273       .  A
C574        C730   1.467       .  S
C575       O1504   1.263       .  A
C575        C861   1.439   1_565  S
C578        C901   1.467       .  S
C579        O580   1.274       .  A
C579        C871   1.487       .  S
O580      Al1503   1.978       .  S
O581        C596   1.260       .  A
O581       Al589   1.885       .  S
C582        O592   1.267       .  A
C582        O583   1.265       .  A
C582        C881   1.452       .  S
O583       Al585   1.925       .  S
O584        C586   1.253       .  A
O584       Al585   1.858       .  S
Al585       O593   1.914       .  S
Al585       O595   1.908       .  S
Al585       O594   1.787       .  S
C586        O599   1.268       .  A
C586        C838   1.480       .  S
O587        C597   1.246       .  A
O587       Al589   1.877       .  S
O588        C601   1.263       .  A
O588       Al598   1.882       .  S
Al589       O602   1.991       .  S
Al589       O599   1.941       .  S
Al589       O594   1.787       .  S
O590        C597   1.255       .  A
O590       Al598   1.900       .  S
O591        C600   1.253       .  A
O591       Al598   1.866       .  S
O592       Al598   1.884       .  S
O593        C600   1.264       .  A
O594       Al598   1.764       .  S
O595        C596   1.264       .  A
C596        C708   1.462   1_655  S
C597        C911   1.443       .  S
C600        C851   1.466       .  S
C601        O602   1.280       .  A
C601        C921   1.482       .  S
C603        C605   1.571       .  S
C603        C607   1.590       .  S
C603        C606   1.570       .  S
C603        C818   1.544       .  S
C604        C608   1.523       .  S
C604        C610   1.514       .  S
C604        C609   1.528       .  S
C604        C828   1.525       .  S
C605        C613   1.419       .  A
C605        C608   1.394       .  A
C606        C617   1.397       .  A
C606        C609   1.396       .  A
C607        C621   1.418       .  A
C607        C610   1.388       .  A
C608        C611   1.360       .  A
C609        C615   1.366       .  A
C610        C618   1.373       .  A
C611        N612   1.347       .  A
C611       H1560   1.084       .  S
N612        C613   1.361       .  A
N612       C1608   1.447       .  S
C613        H614   1.079       .  S
C615       H1093   1.079   1_545  S
N616        C691   1.454   1_554  S
C617        H623   1.080       .  S
C618        N619   1.342       .  A
C618        H620   1.083       .  S
N619        C621   1.375       .  A
N619        C641   1.449       .  S
C621        H622   1.081       .  S
H624       C1547   1.084       .  S
H625       C1083   1.079       .  S
O626        C641   1.268       .  A
O626       Al634   1.982       .  S
C627        N657   1.448       .  S
C627        O637   1.271       .  A
C627        O628   1.247       .  A
O628       Al630   1.824       .  S
O629        C631   1.273       .  A
O629       Al630   1.931       .  S
Al630       O638   1.959       .  S
Al630       O640   1.891       .  S
Al630       O639   1.759       .  S
C631        O644   1.256       .  A
C631        C811   1.442       .  S
O632        C642   1.268       .  A
O632       Al634   1.982       .  S
O633        C646   1.278       .  A
O633       Al643   2.009       .  S
Al634       O647   1.892       .  S
Al634       O644   1.856       .  S
Al634       O639   1.775       .  S
O635        C642   1.250       .  A
O635       Al643   1.847       .  S
O636        C645   1.261       .  A
O636       Al643   1.887       .  S
O637       Al643   1.984       .  S
O638        C645   1.273       .  A
O639       Al643   1.786       .  S
O640        C641   1.260       .  A
C642        C798   1.459       .  S
C645        C788   1.489       .  S
C646        N661   1.454       .  S
C646        O647   1.264       .  A
C648        C650   1.573       .  S
C648        C652   1.589       .  S
C648        C651   1.558       .  S
C648        C771   1.552       .  S
C649        C653   1.537       .  S
C649        C655   1.532       .  S
C649        C654   1.520       .  S
C649        C778   1.539       .  S
C650        C658   1.417       .  A
C650        C653   1.404       .  A
C651        C662   1.401       .  A
C651        C654   1.382       .  A
C652        C666   1.416       .  A
C652        C655   1.408       .  A
C653        C656   1.362       .  A
C654        C660   1.361       .  A
C655        C663   1.382       .  A
C656        N657   1.349       .  A
C656        H669   1.080       .  S
N657        C658   1.358       .  A
C658        H659   1.078       .  S
C660        H670   1.083       .  S
C662        H668   1.080   1_556  S
C663        N664   1.338       .  A
C663        H665   1.081       .  S
N664        C666   1.366       .  A
N664        C686   1.447       .  S
C666        H667   1.080       .  S
O671        C686   1.268       .  A
O671      Al1615   1.983       .  S
C672       N1548   1.447       .  S
C672       O1618   1.272       .  A
C672        O673   1.248       .  A
O673       Al675   1.820       .  S
O674        C676   1.275       .  A
O674       Al675   1.944       .  S
Al675       O683   1.950       .  S
Al675       O685   1.886       .  S
Al675       O684   1.759       .  S
C676       O1625   1.254       .  A
C676       C1694   1.440       .  S
O677        C687   1.265       .  A
O677       Al679   1.972   1_545  S
O678       C1627   1.279       .  A
O678       Al688   2.010       .  S
Al679      O1607   1.983       .  S
Al679       O692   1.892       .  S
Al679       O689   1.850   1_565  S
Al679      O1620   1.772       .  S
O680        C687   1.253       .  A
O680      Al1624   1.858   1_545  S
O681        C690   1.261       .  A
O681       Al688   1.886       .  S
O682       C1608   1.272       .  A
O682      Al1624   1.989   1_545  S
O683        C690   1.272       .  A
O684      Al1615   1.772       .  S
O684       Al688   1.782       .  S
O685        C686   1.259       .  A
C687        C751   1.458       .  S
Al688      O1616   1.858       .  S
Al688      O1618   1.989       .  S
O689       C1612   1.254       .  A
C690        C738   1.486       .  S
C691       O1614   1.279       .  A
C691        O692   1.265       .  A
O693        C708   1.263       .  A
O693       Al701   1.886       .  S
C694        O704   1.262       .  A
C694        O695   1.269       .  A
C694        C781   1.467       .  S
O695       Al697   1.934       .  S
O696        C698   1.251       .  A
O696       Al697   1.858       .  S
Al697       O705   1.899       .  S
Al697       O707   1.924       .  S
Al697       O706   1.779       .  S
C698        O711   1.267       .  A
C698        C741   1.475       .  S
O699        C709   1.251       .  A
O699       Al701   1.874       .  S
O700        C713   1.260       .  A
O700       Al710   1.892       .  S
Al701       O714   1.983       .  S
Al701       O711   1.943       .  S
Al701       O706   1.790       .  S
O702        C709   1.263       .  A
O702       Al710   1.921       .  S
O703        C712   1.257       .  A
O703       Al710   1.883       .  S
O704       Al710   1.871       .  S
O705        C712   1.258       .  A
O706       Al710   1.767       .  S
O707        C708   1.270       .  A
C709        C808   1.444       .  S
C712        C748   1.460       .  S
C713        O714   1.276       .  A
C713        C821   1.486       .  S
O715        C730   1.261       .  A
O715      Al1659   1.889       .  S
C716        O726   1.265       .  A
C716        O717   1.268       .  A
C716       C1767   1.459       .  S
O717       Al719   1.943       .  S
O718        C720   1.253       .  A
O718      Al1655   1.862   1_545  S
Al719      O1654   1.862       .  S
Al719       O727   1.918       .  S
Al719       O729   1.920       .  S
Al719       O728   1.787       .  S
C720        O733   1.268       .  A
C720        C791   1.482       .  S
O721        C731   1.248       .  A
O721       Al723   1.879   1_545  S
O722        C735   1.262       .  A
O722       Al732   1.886       .  S
Al723      O1651   1.889       .  S
Al723      O1672   1.999       .  S
Al723       O733   1.943   1_565  S
Al723      O1664   1.790       .  S
O724       C1667   1.259       .  A
O724       Al732   1.908       .  S
O725        C734   1.255       .  A
O725       Al732   1.872       .  S
O726       Al732   1.873       .  S
O727        C734   1.263       .  A
O728      Al1659   1.790       .  S
O728       Al732   1.763       .  S
O729        C730   1.268       .  A
C731       O1660   1.259   1_545  A
C731        C761   1.446       .  S
C734        C801   1.468       .  S
C735        O736   1.281       .  A
C735        C768   1.489       .  S
O736      Al1659   1.999       .  S
C737        C738   1.407       .  A
C737        C742   1.400       .  A
C737        H744   1.083       .  S
C738        C739   1.407       .  A
C739        C740   1.403       .  A
C739        F746   1.357       .  S
C740        C741   1.405       .  A
C740        H745   1.083       .  S
C741        C742   1.406       .  A
C742        F743   1.358       .  S
C747        C748   1.409       .  A
C747        C752   1.393       .  A
C747        H754   1.084       .  S
C748        C749   1.393       .  A
C749        C750   1.394       .  A
C749        F756   1.357       .  S
C750        C751   1.411       .  A
C750        H755   1.082       .  S
C751        C752   1.394       .  A
C752        F753   1.357       .  S
C757        C758   1.397       .  A
C757        C762   1.394       .  A
C757        H764   1.083       .  S
C758       C1695   1.400       .  A
C758       C1612   1.440       .  S
C759       C1694   1.400       .  A
C759        C760   1.385       .  A
C759        F766   1.358       .  S
C760       C1697   1.396       .  A
C760        H765   1.081       .  S
C761       C1696   1.396       .  A
C761        C762   1.401       .  A
C762        F763   1.354       .  S
C767        C768   1.406       .  A
C767        C772   1.409       .  A
C767        H774   1.081       .  S
C768        C769   1.406       .  A
C769        C770   1.406       .  A
C769        F776   1.357       .  S
C770        C771   1.409       .  A
C770        H775   1.082       .  S
C771        C772   1.414       .  A
C772        F773   1.355       .  S
C777        C778   1.411       .  A
C777        C782   1.395       .  A
C777        H784   1.079       .  S
C778        C779   1.409       .  A
C779        C780   1.394       .  A
C779        F786   1.358       .  S
C780        C781   1.403       .  A
C780        H785   1.084       .  S
C781        C782   1.400       .  A
C782        F783   1.358       .  S
C787        C788   1.407       .  A
C787        C792   1.401       .  A
C787        H794   1.083       .  S
C788        C789   1.408       .  A
C789        C790   1.407       .  A
C789        F796   1.357       .  S
C790        C791   1.406       .  A
C790        H795   1.083       .  S
C791        C792   1.407       .  A
C792        F793   1.358       .  S
C797        C798   1.414       .  A
C797        C802   1.399       .  A
C797        H804   1.082       .  S
C798        C799   1.392       .  A
C799        C800   1.392       .  A
C799        F806   1.358       .  S
C800        C801   1.410       .  A
C800        H805   1.081       .  S
C801        C802   1.394       .  A
C802        F803   1.357       .  S
C807        C808   1.398       .  A
C807        C812   1.389       .  A
C807        H814   1.081       .  S
C808        C809   1.402       .  A
C809        C810   1.388       .  A
C809        F816   1.358       .  S
C810        C811   1.396       .  A
C810        H815   1.084       .  S
C811        C812   1.402       .  A
C812        F813   1.359       .  S
C817        C818   1.407       .  A
C817        C822   1.404       .  A
C817        H824   1.077       .  S
C818        C819   1.412       .  A
C819        C820   1.406       .  A
C819        F826   1.357       .  S
C820        C821   1.405       .  A
C820        H825   1.083       .  S
C821        C822   1.407       .  A
C822        F823   1.354       .  S
C827        C828   1.409       .  A
C827       C1768   1.404       .  A
C827       H1770   1.077       .  S
C828        C829   1.416       .  A
C829        C830   1.377       .  A
C829        F836   1.359       .  S
C830        C831   1.388       .  A
C830        H835   1.077       .  S
C831       C1768   1.405       .  A
C831       C1652   1.459   1_545  S
C832       C1763   1.404       .  A
C832       C1767   1.405       .  A
C832        F833   1.356       .  S
H834       C1763   1.077       .  S
C837        C838   1.405       .  A
C837        C842   1.400       .  A
C837        H844   1.084       .  S
C838        C839   1.409       .  A
C839        C840   1.404       .  A
C839        F846   1.355       .  S
C840        C841   1.404       .  A
C840        H845   1.083       .  S
C841        C842   1.409       .  A
C842        F843   1.358       .  S
C847        C848   1.391       .  A
C847        C852   1.389       .  A
C847        H854   1.084       .  S
C848        C849   1.413       .  A
C849        C850   1.394       .  A
C849        F856   1.353       .  S
C850        C851   1.391       .  A
C850        H855   1.083       .  S
C851        C852   1.416       .  A
C852        F853   1.357       .  S
C857        C858   1.400       .  A
C857        C862   1.389       .  A
C857        H864   1.084       .  S
C858       C1795   1.396       .  A
C859       C1794   1.396       .  A
C859        C860   1.386       .  A
C859        F866   1.356       .  S
C860        C861   1.399       .  A
C860        H865   1.085       .  S
C861       C1798   1.398       .  A
C862       C1797   1.398       .  A
C862        F863   1.356       .  S
C867        C868   1.410       .  A
C867        C872   1.405       .  A
C867        H874   1.082       .  S
C868        C869   1.411       .  A
C869        C870   1.406       .  A
C869        F876   1.354       .  S
C870        C871   1.406       .  A
C870        H875   1.081       .  S
C871        C872   1.405       .  A
C872        F873   1.357       .  S
C877        C878   1.404       .  A
C877        C882   1.400       .  A
C877        H884   1.076       .  S
C878        C879   1.420       .  A
C879        C880   1.377       .  A
C879        F886   1.359       .  S
C880        C881   1.386       .  A
C880        H885   1.082       .  S
C881        C882   1.406       .  A
C882        F883   1.356       .  S
C887        C888   1.405       .  A
C887        C892   1.406       .  A
C887        H894   1.083       .  S
C888        C889   1.411       .  A
C889        C890   1.399       .  A
C889        F896   1.358       .  S
C890        C891   1.402       .  A
C890        H895   1.084       .  S
C891        C892   1.410       .  A
C892        F893   1.356       .  S
C897        C898   1.413       .  A
C897        C902   1.397       .  A
C897        H904   1.082       .  S
C898        C899   1.395       .  A
C899        C900   1.398       .  A
C899        F906   1.357       .  S
C900        C901   1.411       .  A
C900        H905   1.084       .  S
C901        C902   1.394       .  A
C902        F903   1.357       .  S
C907        C908   1.400       .  A
C907        C912   1.388       .  A
C907        H914   1.084       .  S
C908        C909   1.396       .  A
C909        C910   1.392       .  A
C909        F916   1.357       .  S
C910        C911   1.401       .  A
C910        H915   1.082       .  S
C911        C912   1.399       .  A
C912        F913   1.357       .  S
C917        C918   1.409       .  A
C917        C922   1.405       .  A
C917        H924   1.081       .  S
C918        C919   1.411       .  A
C919        C920   1.406       .  A
C919        F926   1.355       .  S
C920        C921   1.405       .  A
C920        H925   1.081       .  S
C921        C922   1.406       .  A
C922        F923   1.357       .  S
C927        C928   1.400   1_545  A
C927        C932   1.398       .  A
C927        H934   1.083       .  S
C928       C1865   1.406       .  A
C928       C1496   1.470       .  S
C929       C1864   1.406       .  A
C929        C930   1.391       .  A
C929        F936   1.358       .  S
C930       C1867   1.403       .  A
C930        H935   1.082       .  S
C931       C1866   1.403   1_545  A
C931        C932   1.416       .  A
C932        F933   1.357       .  S
C937        C939   1.576       .  S
C937        C941   1.593       .  S
C937        C940   1.556       .  S
C937       C1386   1.548       .  S
C938        C942   1.541       .  S
C938        C944   1.531       .  S
C938        C943   1.516       .  S
C938       C1399   1.537       .  S
C939        C947   1.419       .  A
C939        C942   1.406       .  A
C940        C951   1.400       .  A
C940        C943   1.381       .  A
C941        C955   1.420       .  A
C941        C944   1.401       .  A
C942        C945   1.366       .  A
C943        C949   1.359       .  A
C944        C952   1.383       .  A
C945        N946   1.348       .  A
N946        C947   1.358       .  A
C947        H948   1.078       .  S
C949       N1418   1.356       .  A
N950       C1417   1.356       .  A
N950       C1419   1.374       .  A
N950       C1025   1.453   1_556  S
C951       N1418   1.374       .  A
C951        H957   1.077       .  S
C952        N953   1.343       .  A
C952        H954   1.082       .  S
N953        C955   1.370       .  A
N953        C975   1.455       .  S
C955        H956   1.081       .  S
O960        C975   1.273       .  A
O960       Al968   2.003       .  S
C961        N991   1.446       .  S
C961        O971   1.269       .  A
C961        O962   1.249       .  A
O962       Al964   1.830       .  S
O963        C965   1.274       .  A
O963       Al964   1.942       .  S
Al964       O972   1.962       .  S
Al964       O974   1.886       .  S
Al964       O973   1.757       .  S
C965        O978   1.253       .  A
C965       C1376   1.442       .  S
O966        C976   1.271       .  A
O966       Al968   1.997       .  S
O967        C980   1.277       .  A
O967       Al977   2.007       .  S
Al968       O981   1.896       .  S
Al968       O978   1.845       .  S
Al968       O973   1.775       .  S
O969        C976   1.252       .  A
O969       Al977   1.857       .  S
O970        C979   1.260       .  A
O970       Al977   1.872       .  S
O971       Al977   1.981       .  S
O972        C979   1.275       .  A
O973       Al977   1.785       .  S
O974        C975   1.257       .  A
C976       C1366   1.467       .  S
C979       C1356   1.487       .  S
C980        N995   1.455       .  S
C980        O981   1.266       .  A
C982        C984   1.571       .  S
C982        C986   1.591       .  S
C982        C985   1.573       .  S
C982       C1336   1.546       .  S
C983        C987   1.522       .  S
C983        C989   1.513       .  S
C983        C988   1.529       .  S
C983       C1346   1.521       .  S
C984        C992   1.421       .  A
C984        C987   1.392       .  A
C985        C996   1.399       .  A
C985        C988   1.397       .  A
C986       C1000   1.419       .  A
C986        C989   1.388       .  A
C987        C990   1.361       .  A
C988        C994   1.365       .  A
C989        C997   1.371       .  A
C990        N991   1.344       .  A
C990       H1003   1.084       .  S
N991        C992   1.362       .  A
C992        H993   1.079       .  S
C994       N1463   1.358       .  A
C994       H1472   1.078       .  S
N995       C1462   1.358       .  A
N995       C1464   1.374       .  A
C996       N1463   1.374       .  A
C996       H1002   1.080   1_554  S
C997        N998   1.338       .  A
C997        H999   1.083       .  S
N998       C1000   1.375       .  A
N998       C1020   1.447       .  S
C1000      H1001   1.081       .  S
H1004      C1462   1.078       .  S
O1005      C1020   1.265       .  A
C1006      O1007   1.248   1_545  A
O1007     Al1009   1.828       .  S
O1008      C1010   1.273   1_565  A
O1008     Al1009   1.925       .  S
Al1009     O1017   1.952       .  S
Al1009     O1019   1.895       .  S
Al1009     O1018   1.760       .  S
C1010      C1326   1.440       .  S
O1011      C1021   1.265       .  A
O1011     Al1013   1.970       .  S
O1012     Al1022   2.007       .  S
Al1013     O1026   1.894       .  S
Al1013     O1023   1.854       .  S
O1014      C1021   1.251       .  A
O1015      C1024   1.260       .  A
O1015     Al1022   1.882       .  S
O1017      C1024   1.272       .  A
O1018     Al1022   1.789       .  S
O1019      C1020   1.261       .  A
C1021      C1316   1.452       .  S
C1024      C1309   1.485       .  S
C1025      O1026   1.264       .  A
O1027      C1042   1.263       .  A
C1028      O1038   1.260       .  A
C1028      O1029   1.269       .  A
O1029     Al1031   1.938       .  S
O1030      C1032   1.252       .  A
Al1031     O1039   1.910       .  S
Al1031     O1041   1.939       .  S
Al1031     O1040   1.781       .  S
C1032      O1045   1.266       .  A
C1032      C1359   1.480       .  S
O1033      C1043   1.249       .  A
O1033     Al1035   1.862       .  S
O1034      C1047   1.260       .  A
O1034     Al1044   1.894       .  S
Al1035     O1045   1.943       .  S
O1036     Al1044   1.921       .  S
O1037      C1046   1.257       .  A
O1037     Al1044   1.884       .  S
O1038     Al1044   1.866       .  S
O1039      C1046   1.261       .  A
O1040     Al1044   1.767       .  S
O1041      C1042   1.273       .  A
C1042      C1198   1.467       .  S
C1043      C1329   1.439       .  S
C1046      C1369   1.467       .  S
C1047      O1048   1.274       .  A
C1047      C1339   1.487       .  S
O1049      C1064   1.260       .  A
O1049     Al1057   1.885       .  S
C1050      O1060   1.267       .  A
C1050      O1051   1.265       .  A
C1050      C1349   1.452       .  S
O1051     Al1053   1.925       .  S
O1052      C1054   1.253       .  A
O1052     Al1053   1.858       .  S
Al1053     O1061   1.914       .  S
Al1053     O1063   1.908       .  S
Al1053     O1062   1.787       .  S
C1054      O1067   1.268       .  A
C1054      C1306   1.480       .  S
O1055      C1065   1.246       .  A
O1055     Al1057   1.877       .  S
O1056      C1069   1.263       .  A
O1056     Al1066   1.882       .  S
Al1057     O1070   1.991       .  S
Al1057     O1067   1.941       .  S
Al1057     O1062   1.787       .  S
O1058      C1065   1.255       .  A
O1058     Al1066   1.900       .  S
O1059      C1068   1.253       .  A
O1059     Al1066   1.866       .  S
O1060     Al1066   1.884       .  S
O1061      C1068   1.264       .  A
O1062     Al1066   1.764       .  S
O1063      C1064   1.264       .  A
C1064      C1176   1.462   1_655  S
C1065      C1379   1.443       .  S
C1068      C1319   1.466       .  S
C1069      O1070   1.280       .  A
C1069      C1389   1.482       .  S
C1071      C1073   1.571       .  S
C1071      C1075   1.590       .  S
C1071      C1074   1.570       .  S
C1071      C1286   1.544       .  S
C1072      C1076   1.523       .  S
C1072      C1078   1.514       .  S
C1072      C1077   1.528       .  S
C1072      C1296   1.525       .  S
C1073      C1081   1.419       .  A
C1073      C1076   1.394       .  A
C1074      C1085   1.397       .  A
C1074      C1077   1.396       .  A
C1075      C1089   1.418       .  A
C1075      C1078   1.388       .  A
C1076      C1079   1.360       .  A
C1077      C1083   1.366       .  A
C1078      C1086   1.373       .  A
C1079      N1080   1.347       .  A
N1080      C1081   1.361       .  A
C1081      H1082   1.079       .  S
C1083      N1552   1.359       .  A
N1084      C1551   1.359       .  A
N1084      C1553   1.372       .  A
N1084      C1159   1.454       .  S
C1085      N1552   1.372       .  A
C1085      H1091   1.080   1_554  S
C1086      N1087   1.342       .  A
C1086      H1088   1.083       .  S
N1087      C1089   1.375       .  A
N1087      C1109   1.449       .  S
C1089      H1090   1.081       .  S
O1094      C1109   1.268       .  A
O1094     Al1102   1.982       .  S
C1095      N1125   1.448       .  S
C1095      O1105   1.271       .  A
C1095      O1096   1.247       .  A
O1096     Al1098   1.824       .  S
O1097      C1099   1.273       .  A
O1097     Al1098   1.931       .  S
Al1098     O1106   1.959       .  S
Al1098     O1108   1.891       .  S
Al1098     O1107   1.759       .  S
C1099      O1112   1.256       .  A
C1099      C1279   1.442       .  S
O1100      C1110   1.268       .  A
O1100     Al1102   1.982       .  S
O1101      C1114   1.278       .  A
O1101     Al1111   2.009       .  S
Al1102     O1115   1.892       .  S
Al1102     O1112   1.856       .  S
Al1102     O1107   1.775       .  S
O1103      C1110   1.250       .  A
O1103     Al1111   1.847       .  S
O1104      C1113   1.261       .  A
O1104     Al1111   1.887       .  S
O1105     Al1111   1.984       .  S
O1106      C1113   1.273       .  A
O1107     Al1111   1.786       .  S
O1108      C1109   1.260       .  A
C1110      C1266   1.459       .  S
C1113      C1256   1.489       .  S
C1114      N1129   1.454   1_554  S
C1114      O1115   1.264       .  A
C1116      C1118   1.573       .  S
C1116      C1120   1.589       .  S
C1116      C1119   1.558       .  S
C1116      C1239   1.552       .  S
C1117      C1121   1.537       .  S
C1117      C1123   1.532       .  S
C1117      C1122   1.520       .  S
C1117      C1246   1.539       .  S
C1118      C1126   1.417       .  A
C1118      C1121   1.404       .  A
C1119      C1130   1.401       .  A
C1119      C1122   1.382       .  A
C1120      C1134   1.416       .  A
C1120      C1123   1.408       .  A
C1121      C1124   1.362       .  A
C1122      C1128   1.361       .  A
C1123      C1131   1.382       .  A
C1124      N1125   1.349       .  A
C1124      H1137   1.080       .  S
N1125      C1126   1.358       .  A
C1126      H1127   1.078       .  S
C1128      N1597   1.357       .  A
C1128      H1138   1.083       .  S
N1129      C1596   1.357       .  A
N1129      C1598   1.374       .  A
C1130      N1597   1.374       .  A
C1130      H1136   1.080       .  S
C1131      N1132   1.338       .  A
C1131      H1133   1.081       .  S
N1132      C1134   1.366       .  A
N1132      C1154   1.448       .  S
C1134      H1135   1.080       .  S
O1139      C1154   1.268       .  A
C1140      O1141   1.248   1_545  A
O1141     Al1143   1.820       .  S
O1142      C1144   1.275   1_565  A
O1142     Al1143   1.944       .  S
Al1143     O1151   1.950       .  S
Al1143     O1153   1.886       .  S
Al1143     O1152   1.760       .  S
O1145      C1155   1.265       .  A
O1145     Al1147   1.973       .  S
O1146     Al1156   2.010       .  S
Al1147     O1160   1.892       .  S
Al1147     O1157   1.850       .  S
O1148      C1155   1.253       .  A
O1149      C1158   1.261       .  A
O1149     Al1156   1.886       .  S
O1151      C1158   1.272       .  A
O1152     Al1156   1.782       .  S
O1153      C1154   1.259       .  A
C1155      C1219   1.458       .  S
C1158      C1206   1.486       .  S
C1159      O1160   1.265       .  A
O1161      C1176   1.263       .  A
O1161     Al1169   1.886       .  S
C1162      O1172   1.262       .  A
C1162      O1163   1.269       .  A
C1162      C1249   1.467       .  S
O1163     Al1165   1.934       .  S
O1164      C1166   1.251       .  A
O1164     Al1165   1.858       .  S
Al1165     O1173   1.899       .  S
Al1165     O1175   1.924       .  S
Al1165     O1174   1.779       .  S
C1166      O1179   1.267       .  A
C1166      C1209   1.475       .  S
O1167      C1177   1.251       .  A
O1167     Al1169   1.874       .  S
O1168      C1181   1.260       .  A
O1168     Al1178   1.892       .  S
Al1169     O1182   1.983       .  S
Al1169     O1179   1.943       .  S
Al1169     O1174   1.790       .  S
O1170      C1177   1.263       .  A
O1170     Al1178   1.921       .  S
O1171      C1180   1.257       .  A
O1171     Al1178   1.883       .  S
O1172     Al1178   1.871       .  S
O1173      C1180   1.258       .  A
O1174     Al1178   1.767       .  S
O1175      C1176   1.270       .  A
C1177      C1276   1.444       .  S
C1180      C1216   1.460       .  S
C1181      O1182   1.275       .  A
C1181      C1289   1.486       .  S
O1183      C1198   1.261       .  A
C1184      O1194   1.265       .  A
C1184      O1185   1.268       .  A
O1185     Al1187   1.943       .  S
O1186      C1188   1.253       .  A
Al1187     O1195   1.918       .  S
Al1187     O1197   1.920       .  S
Al1187     O1196   1.787       .  S
C1188      O1201   1.268       .  A
C1188      C1259   1.482       .  S
O1189      C1199   1.248       .  A
O1189     Al1191   1.879       .  S
O1190      C1203   1.262       .  A
O1190     Al1200   1.886       .  S
Al1191     O1201   1.943       .  S
O1192     Al1200   1.908       .  S
O1193      C1202   1.255       .  A
O1193     Al1200   1.872       .  S
O1194     Al1200   1.873       .  S
O1195      C1202   1.263       .  A
O1196     Al1200   1.763       .  S
O1197      C1198   1.268       .  A
C1199      C1229   1.446       .  S
C1202      C1269   1.468       .  S
C1203      O1204   1.281       .  A
C1203      C1236   1.489       .  S
C1205      C1206   1.407       .  A
C1205      C1210   1.400       .  A
C1205      H1212   1.083       .  S
C1206      C1207   1.407       .  A
C1207      C1208   1.403       .  A
C1207      F1214   1.357       .  S
C1208      C1209   1.405       .  A
C1208      H1213   1.083       .  S
C1209      C1210   1.406       .  A
C1210      F1211   1.358       .  S
C1215      C1216   1.409       .  A
C1215      C1220   1.393       .  A
C1215      H1222   1.084       .  S
C1216      C1217   1.393       .  A
C1217      C1218   1.394       .  A
C1217      F1224   1.357       .  S
C1218      C1219   1.411       .  A
C1218      H1223   1.082       .  S
C1219      C1220   1.394       .  A
C1220      F1221   1.357       .  S
C1225      C1226   1.397       .  A
C1225      C1230   1.394       .  A
C1225      H1232   1.083       .  S
C1227      C1228   1.385       .  A
C1227      F1234   1.358   1_545  S
C1228      H1233   1.081   1_545  S
C1229      C1230   1.401       .  A
C1230      F1231   1.354       .  S
C1235      C1236   1.406       .  A
C1235      C1240   1.409       .  A
C1235      H1242   1.081       .  S
C1236      C1237   1.406       .  A
C1237      C1238   1.406       .  A
C1237      F1244   1.357       .  S
C1238      C1239   1.409       .  A
C1238      H1243   1.082       .  S
C1239      C1240   1.414       .  A
C1240      F1241   1.355       .  S
C1245      C1246   1.411       .  A
C1245      C1250   1.395       .  A
C1245      H1252   1.079       .  S
C1246      C1247   1.409       .  A
C1247      C1248   1.394       .  A
C1247      F1254   1.358       .  S
C1248      C1249   1.403       .  A
C1248      H1253   1.084       .  S
C1249      C1250   1.400       .  A
C1250      F1251   1.358       .  S
C1255      C1256   1.407       .  A
C1255      C1260   1.401       .  A
C1255      H1262   1.083       .  S
C1256      C1257   1.408       .  A
C1257      C1258   1.407       .  A
C1257      F1264   1.357       .  S
C1258      C1259   1.406       .  A
C1258      H1263   1.083       .  S
C1259      C1260   1.407       .  A
C1260      F1261   1.358       .  S
C1265      C1266   1.414       .  A
C1265      C1270   1.399       .  A
C1265      H1272   1.082       .  S
C1266      C1267   1.392       .  A
C1267      C1268   1.392       .  A
C1267      F1274   1.358       .  S
C1268      C1269   1.410       .  A
C1268      H1273   1.081       .  S
C1269      C1270   1.394       .  A
C1270      F1271   1.357       .  S
C1275      C1276   1.398       .  A
C1275      C1280   1.389       .  A
C1275      H1282   1.081       .  S
C1276      C1277   1.402       .  A
C1277      C1278   1.388       .  A
C1277      F1284   1.358       .  S
C1278      C1279   1.396       .  A
C1278      H1283   1.084       .  S
C1279      C1280   1.402       .  A
C1280      F1281   1.359       .  S
C1285      C1286   1.407       .  A
C1285      C1290   1.404       .  A
C1285      H1292   1.077       .  S
C1286      C1287   1.412       .  A
C1287      C1288   1.406       .  A
C1287      F1294   1.357       .  S
C1288      C1289   1.405       .  A
C1288      H1293   1.083       .  S
C1289      C1290   1.407       .  A
C1290      F1291   1.354       .  S
C1295      C1296   1.409       .  A
C1296      C1297   1.416       .  A
C1297      C1298   1.377       .  A
C1297      F1304   1.359       .  S
C1298      C1299   1.388       .  A
C1298      H1303   1.077       .  S
C1300      F1301   1.356   1_545  S
C1305      C1306   1.405       .  A
C1305      C1310   1.400       .  A
C1305      H1312   1.084       .  S
C1306      C1307   1.409       .  A
C1307      C1308   1.404       .  A
C1307      F1314   1.355       .  S
C1308      C1309   1.404       .  A
C1308      H1313   1.083       .  S
C1309      C1310   1.409       .  A
C1310      F1311   1.358       .  S
C1315      C1316   1.391       .  A
C1315      C1320   1.389       .  A
C1315      H1322   1.084       .  S
C1316      C1317   1.413       .  A
C1317      C1318   1.394       .  A
C1317      F1324   1.353       .  S
C1318      C1319   1.391       .  A
C1318      H1323   1.083       .  S
C1319      C1320   1.416       .  A
C1320      F1321   1.357       .  S
C1325      C1326   1.400       .  A
C1325      C1330   1.389       .  A
C1325      H1332   1.084   1_545  S
C1327      C1328   1.386       .  A
C1327      F1334   1.356       .  S
C1328      C1329   1.399       .  A
C1328      H1333   1.085       .  S
C1330      F1331   1.356   1_545  S
C1335      C1336   1.410       .  A
C1335      C1340   1.405       .  A
C1335      H1342   1.082       .  S
C1336      C1337   1.411       .  A
C1337      C1338   1.406       .  A
C1337      F1344   1.354       .  S
C1338      C1339   1.406       .  A
C1338      H1343   1.081       .  S
C1339      C1340   1.405       .  A
C1340      F1341   1.357       .  S
C1345      C1346   1.404       .  A
C1345      C1350   1.400       .  A
C1345      H1352   1.076       .  S
C1346      C1347   1.420       .  A
C1347      C1348   1.377       .  A
C1347      F1354   1.359       .  S
C1348      C1349   1.386       .  A
C1348      H1353   1.082       .  S
C1349      C1350   1.406       .  A
C1350      F1351   1.356       .  S
C1355      C1356   1.405       .  A
C1355      C1360   1.406       .  A
C1355      H1362   1.083       .  S
C1356      C1357   1.411       .  A
C1357      C1358   1.399       .  A
C1357      F1364   1.358       .  S
C1358      C1359   1.402       .  A
C1358      H1363   1.084       .  S
C1359      C1360   1.410       .  A
C1360      F1361   1.356       .  S
C1365      C1366   1.413       .  A
C1365      C1370   1.397       .  A
C1365      H1372   1.082       .  S
C1366      C1367   1.395       .  A
C1367      C1368   1.398       .  A
C1367      F1374   1.357       .  S
C1368      C1369   1.411       .  A
C1368      H1373   1.084       .  S
C1369      C1370   1.394       .  A
C1370      F1371   1.357       .  S
C1375      C1376   1.400       .  A
C1375      C1380   1.388       .  A
C1375      H1382   1.084       .  S
C1376      C1377   1.396       .  A
C1377      C1378   1.392       .  A
C1377      F1384   1.357       .  S
C1378      C1379   1.401       .  A
C1378      H1383   1.082       .  S
C1379      C1380   1.399       .  A
C1380      F1381   1.357       .  S
C1385      C1386   1.409       .  A
C1385      C1390   1.405       .  A
C1385      H1392   1.081       .  S
C1386      C1387   1.411       .  A
C1387      C1388   1.406       .  A
C1387      F1394   1.355       .  S
C1388      C1389   1.405       .  A
C1388      H1393   1.081       .  S
C1389      C1390   1.406       .  A
C1390      F1391   1.357       .  S
C1395      C1396   1.400       .  A
C1395      C1400   1.398       .  A
C1395      H1402   1.083       .  S
C1397      C1398   1.391       .  A
C1397      F1404   1.358       .  S
C1398      H1403   1.082       .  S
C1399      C1400   1.416       .  A
C1400      F1401   1.357       .  S
C1405      C1407   1.576       .  S
C1405      C1409   1.593       .  S
C1405      C1408   1.556       .  S
C1405      C1854   1.548       .  S
C1406      C1410   1.541       .  S
C1406      C1412   1.531       .  S
C1406      C1411   1.516       .  S
C1406      C1867   1.537       .  S
C1407      C1415   1.419       .  A
C1407      C1410   1.406       .  A
C1408      C1419   1.400       .  A
C1408      C1411   1.381       .  A
C1409      C1423   1.420       .  A
C1409      C1412   1.401       .  A
C1410      C1413   1.366       .  A
C1411      C1417   1.359       .  A
C1412      C1420   1.383       .  A
C1413      N1414   1.348       .  A
N1414      C1415   1.358       .  A
C1415      H1416   1.078       .  S
N1418      C1493   1.453       .  S
C1419      H1425   1.077       .  S
C1420      N1421   1.343       .  A
C1420      H1422   1.082       .  S
N1421      C1423   1.370       .  A
N1421      C1443   1.455       .  S
C1423      H1424   1.081       .  S
O1428      C1443   1.273       .  A
O1428     Al1436   2.003       .  S
C1429      N1459   1.446       .  S
C1429      O1439   1.269       .  A
C1429      O1430   1.249       .  A
O1430     Al1432   1.830       .  S
O1431      C1433   1.274       .  A
O1431     Al1432   1.942       .  S
Al1432     O1440   1.962       .  S
Al1432     O1442   1.886       .  S
Al1432     O1441   1.757       .  S
C1433      O1446   1.253       .  A
C1433      C1844   1.442       .  S
O1434      C1444   1.271       .  A
O1434     Al1436   1.997       .  S
O1435      C1448   1.277       .  A
O1435     Al1445   2.007       .  S
Al1436     O1449   1.896       .  S
Al1436     O1446   1.845       .  S
Al1436     O1441   1.775       .  S
O1437      C1444   1.252       .  A
O1437     Al1445   1.857       .  S
O1438      C1447   1.260       .  A
O1438     Al1445   1.872       .  S
O1439     Al1445   1.981       .  S
O1440      C1447   1.275       .  A
O1441     Al1445   1.785       .  S
O1442      C1443   1.257       .  A
C1444      C1834   1.467       .  S
C1447      C1824   1.487       .  S
C1448      N1463   1.455   1_556  S
C1448      O1449   1.266       .  A
C1450      C1452   1.571       .  S
C1450      C1454   1.591       .  S
C1450      C1453   1.573       .  S
C1450      C1804   1.546       .  S
C1451      C1455   1.522       .  S
C1451      C1457   1.513       .  S
C1451      C1456   1.529       .  S
C1451      C1814   1.521       .  S
C1452      C1460   1.421       .  A
C1452      C1455   1.392       .  A
C1453      C1464   1.399       .  A
C1453      C1456   1.397       .  A
C1454      C1468   1.419       .  A
C1454      C1457   1.388       .  A
C1455      C1458   1.361       .  A
C1456      C1462   1.365       .  A
C1457      C1465   1.371       .  A
C1458      N1459   1.344       .  A
C1458      H1471   1.084       .  S
N1459      C1460   1.362       .  A
C1460      H1461   1.079       .  S
C1464      H1470   1.080       .  S
C1465      N1466   1.338       .  A
C1465      H1467   1.083       .  S
N1466      C1468   1.375       .  A
N1466      C1488   1.447       .  S
C1468      H1469   1.081       .  S
O1473      C1488   1.265       .  A
C1474      O1475   1.248   1_545  A
O1475     Al1477   1.828       .  S
O1476      C1478   1.273   1_565  A
O1476     Al1477   1.925       .  S
Al1477     O1485   1.952       .  S
Al1477     O1487   1.895       .  S
Al1477     O1486   1.760       .  S
C1478      C1794   1.440       .  S
O1479      C1489   1.265       .  A
O1479     Al1481   1.970       .  S
O1480     Al1490   2.007       .  S
Al1481     O1494   1.894       .  S
Al1481     O1491   1.854       .  S
O1482      C1489   1.251       .  A
O1483      C1492   1.260       .  A
O1483     Al1490   1.882       .  S
O1485      C1492   1.272       .  A
O1486     Al1490   1.789       .  S
O1487      C1488   1.261       .  A
C1489      C1784   1.452       .  S
C1492      C1777   1.485       .  S
C1493      O1494   1.264       .  A
O1495      C1510   1.263       .  A
C1496      O1506   1.260       .  A
C1496      O1497   1.269       .  A
O1497     Al1499   1.938       .  S
O1498      C1500   1.252       .  A
Al1499     O1507   1.910       .  S
Al1499     O1509   1.939       .  S
Al1499     O1508   1.781       .  S
C1500      O1513   1.266       .  A
C1500      C1827   1.480       .  S
O1501      C1511   1.249       .  A
O1501     Al1503   1.862       .  S
O1502      C1515   1.260       .  A
O1502     Al1512   1.894       .  S
Al1503     O1513   1.943       .  S
O1504     Al1512   1.921       .  S
O1505      C1514   1.257       .  A
O1505     Al1512   1.884       .  S
O1506     Al1512   1.866       .  S
O1507      C1514   1.261       .  A
O1508     Al1512   1.767       .  S
O1509      C1510   1.273       .  A
C1510      C1666   1.467       .  S
C1511      C1797   1.439       .  S
C1514      C1837   1.467       .  S
C1515      O1516   1.274       .  A
C1515      C1807   1.487       .  S
O1517      C1532   1.260       .  A
O1517     Al1525   1.885       .  S
C1518      O1528   1.267       .  A
C1518      O1519   1.265       .  A
C1518      C1817   1.452       .  S
O1519     Al1521   1.925       .  S
O1520      C1522   1.253       .  A
O1520     Al1521   1.858       .  S
Al1521     O1529   1.914       .  S
Al1521     O1531   1.908       .  S
Al1521     O1530   1.787       .  S
C1522      O1535   1.268       .  A
C1522      C1774   1.480       .  S
O1523      C1533   1.246       .  A
O1523     Al1525   1.877       .  S
O1524      C1537   1.263       .  A
O1524     Al1534   1.882       .  S
Al1525     O1538   1.991       .  S
Al1525     O1535   1.941       .  S
Al1525     O1530   1.787       .  S
O1526      C1533   1.255       .  A
O1526     Al1534   1.900       .  S
O1527      C1536   1.253       .  A
O1527     Al1534   1.866       .  S
O1528     Al1534   1.884       .  S
O1529      C1536   1.264       .  A
O1530     Al1534   1.764       .  S
O1531      C1532   1.264       .  A
C1532      C1644   1.462   1_655  S
C1533      C1847   1.443       .  S
C1536      C1787   1.466       .  S
C1537      O1538   1.280       .  A
C1537      C1857   1.482       .  S
C1539      C1541   1.571       .  S
C1539      C1543   1.590       .  S
C1539      C1542   1.570       .  S
C1539      C1754   1.544       .  S
C1540      C1544   1.523       .  S
C1540      C1546   1.514       .  S
C1540      C1545   1.528       .  S
C1540      C1764   1.525       .  S
C1541      C1549   1.419       .  A
C1541      C1544   1.394       .  A
C1542      C1553   1.397       .  A
C1542      C1545   1.396       .  A
C1543      C1557   1.418       .  A
C1543      C1546   1.388       .  A
C1544      C1547   1.360       .  A
C1545      C1551   1.366       .  A
C1546      C1554   1.373       .  A
C1547      N1548   1.347       .  A
N1548      C1549   1.361       .  A
C1549      H1550   1.079       .  S
N1552      C1627   1.454   1_554  S
C1553      H1559   1.080       .  S
C1554      N1555   1.342       .  A
C1554      H1556   1.083       .  S
N1555      C1557   1.375       .  A
N1555      C1577   1.449       .  S
C1557      H1558   1.081       .  S
O1562      C1577   1.268       .  A
O1562     Al1570   1.982       .  S
C1563      N1593   1.448       .  S
C1563      O1573   1.271       .  A
C1563      O1564   1.247       .  A
O1564     Al1566   1.824       .  S
O1565      C1567   1.273       .  A
O1565     Al1566   1.931       .  S
Al1566     O1574   1.959       .  S
Al1566     O1576   1.891       .  S
Al1566     O1575   1.759       .  S
C1567      O1580   1.256       .  A
C1567      C1747   1.442       .  S
O1568      C1578   1.268       .  A
O1568     Al1570   1.982       .  S
O1569      C1582   1.278       .  A
O1569     Al1579   2.009       .  S
Al1570     O1583   1.892       .  S
Al1570     O1580   1.856       .  S
Al1570     O1575   1.775       .  S
O1571      C1578   1.250       .  A
O1571     Al1579   1.847       .  S
O1572      C1581   1.261       .  A
O1572     Al1579   1.887       .  S
O1573     Al1579   1.984       .  S
O1574      C1581   1.273       .  A
O1575     Al1579   1.786       .  S
O1576      C1577   1.260       .  A
C1578      C1734   1.459       .  S
C1581      C1724   1.489       .  S
C1582      N1597   1.454       .  S
C1582      O1583   1.264       .  A
C1584      C1586   1.573       .  S
C1584      C1588   1.589       .  S
C1584      C1587   1.558       .  S
C1584      C1707   1.552       .  S
C1585      C1589   1.537       .  S
C1585      C1591   1.532       .  S
C1585      C1590   1.520       .  S
C1585      C1714   1.539       .  S
C1586      C1594   1.417       .  A
C1586      C1589   1.404       .  A
C1587      C1598   1.401       .  A
C1587      C1590   1.382       .  A
C1588      C1602   1.416       .  A
C1588      C1591   1.408       .  A
C1589      C1592   1.362       .  A
C1590      C1596   1.361       .  A
C1591      C1599   1.382       .  A
C1592      N1593   1.349       .  A
C1592      H1605   1.080       .  S
N1593      C1594   1.358       .  A
C1594      H1595   1.078       .  S
C1596      H1606   1.083       .  S
C1598      H1604   1.080   1_556  S
C1599      N1600   1.338       .  A
C1599      H1601   1.081       .  S
N1600      C1602   1.366       .  A
N1600      C1622   1.448       .  S
C1602      H1603   1.080       .  S
O1607      C1622   1.268       .  A
C1608      O1609   1.248   1_545  A
O1609     Al1611   1.820       .  S
O1610      C1612   1.275   1_565  A
O1610     Al1611   1.944       .  S
Al1611     O1619   1.950       .  S
Al1611     O1621   1.886       .  S
Al1611     O1620   1.760       .  S
O1613      C1623   1.265       .  A
O1613     Al1615   1.973       .  S
O1614     Al1624   2.010       .  S
Al1615     O1628   1.892       .  S
Al1615     O1625   1.850       .  S
O1616      C1623   1.253       .  A
O1617      C1626   1.261       .  A
O1617     Al1624   1.886       .  S
O1619      C1626   1.272       .  A
O1620     Al1624   1.782       .  S
O1621      C1622   1.259       .  A
C1623      C1687   1.458       .  S
C1626      C1674   1.486       .  S
C1627      O1628   1.265       .  A
O1629      C1644   1.263       .  A
O1629     Al1637   1.886       .  S
C1630      O1640   1.262       .  A
C1630      O1631   1.269       .  A
C1630      C1717   1.467       .  S
O1631     Al1633   1.934       .  S
O1632      C1634   1.251       .  A
O1632     Al1633   1.858       .  S
Al1633     O1641   1.899       .  S
Al1633     O1643   1.924       .  S
Al1633     O1642   1.779       .  S
C1634      O1647   1.267       .  A
C1634      C1677   1.475       .  S
O1635      C1645   1.251       .  A
O1635     Al1637   1.874       .  S
O1636      C1649   1.260       .  A
O1636     Al1646   1.892       .  S
Al1637     O1650   1.983       .  S
Al1637     O1647   1.943       .  S
Al1637     O1642   1.790       .  S
O1638      C1645   1.263       .  A
O1638     Al1646   1.921       .  S
O1639      C1648   1.257       .  A
O1639     Al1646   1.883       .  S
O1640     Al1646   1.871       .  S
O1641      C1648   1.258       .  A
O1642     Al1646   1.767       .  S
O1643      C1644   1.270       .  A
C1645      C1744   1.444       .  S
C1648      C1684   1.460       .  S
C1649      O1650   1.275       .  A
C1649      C1757   1.486       .  S
O1651      C1666   1.261       .  A
C1652      O1662   1.265       .  A
C1652      O1653   1.268       .  A
O1653     Al1655   1.943       .  S
O1654      C1656   1.253       .  A
Al1655     O1663   1.918       .  S
Al1655     O1665   1.920       .  S
Al1655     O1664   1.787       .  S
C1656      O1669   1.268       .  A
C1656      C1727   1.482       .  S
O1657      C1667   1.248       .  A
O1657     Al1659   1.879       .  S
O1658      C1671   1.262       .  A
O1658     Al1668   1.886       .  S
Al1659     O1669   1.943       .  S
O1660     Al1668   1.908       .  S
O1661      C1670   1.255       .  A
O1661     Al1668   1.872       .  S
O1662     Al1668   1.873       .  S
O1663      C1670   1.263       .  A
O1664     Al1668   1.763       .  S
O1665      C1666   1.268       .  A
C1667      C1697   1.446       .  S
C1670      C1737   1.468       .  S
C1671      O1672   1.281       .  A
C1671      C1704   1.489       .  S
C1673      C1674   1.407       .  A
C1673      C1678   1.400       .  A
C1673      H1680   1.083       .  S
C1674      C1675   1.407       .  A
C1675      C1676   1.403       .  A
C1675      F1682   1.357       .  S
C1676      C1677   1.405       .  A
C1676      H1681   1.083       .  S
C1677      C1678   1.406       .  A
C1678      F1679   1.358       .  S
C1683      C1684   1.409       .  A
C1683      C1688   1.393       .  A
C1683      H1690   1.084       .  S
C1684      C1685   1.393       .  A
C1685      C1686   1.394       .  A
C1685      F1692   1.357       .  S
C1686      C1687   1.411       .  A
C1686      H1691   1.082       .  S
C1687      C1688   1.394       .  A
C1688      F1689   1.357       .  S
C1693      C1694   1.397       .  A
C1693      C1698   1.394       .  A
C1693      H1700   1.083       .  S
C1695      C1696   1.385       .  A
C1695      F1702   1.358   1_545  S
C1696      H1701   1.081   1_545  S
C1697      C1698   1.401       .  A
C1698      F1699   1.354       .  S
C1703      C1704   1.406       .  A
C1703      C1708   1.409       .  A
C1703      H1710   1.081       .  S
C1704      C1705   1.406       .  A
C1705      C1706   1.406       .  A
C1705      F1712   1.357       .  S
C1706      C1707   1.409       .  A
C1706      H1711   1.082       .  S
C1707      C1708   1.414       .  A
C1708      F1709   1.355       .  S
C1713      C1714   1.411       .  A
C1713      C1718   1.395       .  A
C1713      H1720   1.079       .  S
C1714      C1715   1.409       .  A
C1715      C1716   1.394       .  A
C1715      F1722   1.358       .  S
C1716      C1717   1.403       .  A
C1716      H1721   1.084       .  S
C1717      C1718   1.400       .  A
C1718      F1719   1.358       .  S
C1723      C1724   1.407       .  A
C1723      C1728   1.401       .  A
C1723      H1730   1.083       .  S
C1724      C1725   1.408       .  A
C1725      C1726   1.407       .  A
C1725      F1732   1.357       .  S
C1726      C1727   1.406       .  A
C1726      H1731   1.083       .  S
C1727      C1728   1.407       .  A
C1728      F1729   1.358       .  S
C1733      C1734   1.414       .  A
C1733      C1738   1.399       .  A
C1733      H1740   1.082       .  S
C1734      C1735   1.392       .  A
C1735      C1736   1.391       .  A
C1735      F1742   1.358       .  S
C1736      C1737   1.410       .  A
C1736      H1741   1.081       .  S
C1737      C1738   1.394       .  A
C1738      F1739   1.357       .  S
C1743      C1744   1.398       .  A
C1743      C1748   1.389       .  A
C1743      H1750   1.081       .  S
C1744      C1745   1.402       .  A
C1745      C1746   1.388       .  A
C1745      F1752   1.358       .  S
C1746      C1747   1.396       .  A
C1746      H1751   1.084       .  S
C1747      C1748   1.402       .  A
C1748      F1749   1.359       .  S
C1753      C1754   1.407       .  A
C1753      C1758   1.404       .  A
C1753      H1760   1.077       .  S
C1754      C1755   1.412       .  A
C1755      C1756   1.406       .  A
C1755      F1762   1.357       .  S
C1756      C1757   1.405       .  A
C1756      H1761   1.083       .  S
C1757      C1758   1.407       .  A
C1758      F1759   1.354       .  S
C1763      C1764   1.409       .  A
C1764      C1765   1.416       .  A
C1765      C1766   1.377       .  A
C1765      F1772   1.359       .  S
C1766      C1767   1.388       .  A
C1766      H1771   1.077       .  S
C1768      F1769   1.356   1_545  S
C1773      C1774   1.405       .  A
C1773      C1778   1.400       .  A
C1773      H1780   1.084       .  S
C1774      C1775   1.409       .  A
C1775      C1776   1.404       .  A
C1775      F1782   1.355       .  S
C1776      C1777   1.404       .  A
C1776      H1781   1.083       .  S
C1777      C1778   1.409       .  A
C1778      F1779   1.358       .  S
C1783      C1784   1.391       .  A
C1783      C1788   1.389       .  A
C1783      H1790   1.084       .  S
C1784      C1785   1.413       .  A
C1785      C1786   1.394       .  A
C1785      F1792   1.353       .  S
C1786      C1787   1.391       .  A
C1786      H1791   1.083       .  S
C1787      C1788   1.416       .  A
C1788      F1789   1.357       .  S
C1793      C1794   1.400       .  A
C1793      C1798   1.389       .  A
C1793      H1800   1.084   1_545  S
C1795      C1796   1.386       .  A
C1795      F1802   1.356       .  S
C1796      C1797   1.399       .  A
C1796      H1801   1.085       .  S
C1798      F1799   1.356   1_545  S
C1803      C1804   1.410       .  A
C1803      C1808   1.405       .  A
C1803      H1810   1.082       .  S
C1804      C1805   1.411       .  A
C1805      C1806   1.406       .  A
C1805      F1812   1.354       .  S
C1806      C1807   1.406       .  A
C1806      H1811   1.081       .  S
C1807      C1808   1.405       .  A
C1808      F1809   1.357       .  S
C1813      C1814   1.404       .  A
C1813      C1818   1.400       .  A
C1813      H1820   1.076       .  S
C1814      C1815   1.420       .  A
C1815      C1816   1.377       .  A
C1815      F1822   1.359       .  S
C1816      C1817   1.386       .  A
C1816      H1821   1.082       .  S
C1817      C1818   1.406       .  A
C1818      F1819   1.356       .  S
C1823      C1824   1.405       .  A
C1823      C1828   1.406       .  A
C1823      H1830   1.083       .  S
C1824      C1825   1.411       .  A
C1825      C1826   1.399       .  A
C1825      F1832   1.358       .  S
C1826      C1827   1.402       .  A
C1826      H1831   1.084       .  S
C1827      C1828   1.410       .  A
C1828      F1829   1.356       .  S
C1833      C1834   1.413       .  A
C1833      C1838   1.397       .  A
C1833      H1840   1.082       .  S
C1834      C1835   1.395       .  A
C1835      C1836   1.398       .  A
C1835      F1842   1.357       .  S
C1836      C1837   1.411       .  A
C1836      H1841   1.084       .  S
C1837      C1838   1.394       .  A
C1838      F1839   1.357       .  S
C1843      C1844   1.400       .  A
C1843      C1848   1.388       .  A
C1843      H1850   1.084       .  S
C1844      C1845   1.396       .  A
C1845      C1846   1.392       .  A
C1845      F1852   1.357       .  S
C1846      C1847   1.401       .  A
C1846      H1851   1.082       .  S
C1847      C1848   1.399       .  A
C1848      F1849   1.357       .  S
C1853      C1854   1.409       .  A
C1853      C1858   1.405       .  A
C1853      H1860   1.081       .  S
C1854      C1855   1.411       .  A
C1855      C1856   1.406       .  A
C1855      F1862   1.355       .  S
C1856      C1857   1.405       .  A
C1856      H1861   1.081       .  S
C1857      C1858   1.406       .  A
C1858      F1859   1.357       .  S
C1863      C1864   1.400       .  A
C1863      C1868   1.398       .  A
C1863      H1870   1.083       .  S
C1865      C1866   1.391       .  A
C1865      F1872   1.358       .  S
C1866      H1871   1.082       .  S
C1867      C1868   1.416       .  A
C1868      F1869   1.357       .  S
