geometry optimzed in LAMMPS
_audit_creation_date              2020-12-01 
_audit_creation_method            'lammps2cif' 
_symmetry_space_group_name_H-M    'P1' 
_symmetry_Int_Tables_number       1 
_symmetry_cell_setting            triclinic 
loop_ 
_symmetry_equiv_pos_as_xyz 
  x,y,z 
_cell_length_a                    57.97235685 
_cell_length_b                    50.475974727057256 
_cell_length_c                    47.37684487004689 
_cell_angle_alpha                 90.23689052652006 
_cell_angle_beta                  90.07773453163867 
_cell_angle_gamma                 90.07123977785942 
loop_ 
_atom_site_label 
_atom_site_type_symbol 
_atom_site_fract_x 
_atom_site_fract_y 
_atom_site_fract_z 
_atom_site_charge 
O1          O  0.63034890  0.47990861  0.98273702    -0.73200
O2          O  0.56200687  0.48200449  0.97596032    -0.74200
O3          O  0.59339335  0.45776619  0.01421688    -0.62800
O4          O  0.59874741  0.50344021  0.94475180    -0.71300
O5          O  0.60138456  0.46685248  0.91873598    -0.70800
O6          O  0.59260971  0.42199835  0.98691250    -0.62100
O7          O  0.56228654  0.44643847  0.94823183    -0.74600
O8          O  0.63115230  0.44220885  0.95833979    -0.73300
Cu9        Cu  0.59608387  0.48203516  0.98037983     1.04600
Cu10       Cu  0.59687022  0.44313818  0.95204829     1.04300
C11         C  0.64147806  0.46055927  0.97205794     0.93000
C12         C  0.55130181  0.46491350  0.96094133     0.92100
C13         C  0.59209086  0.43256292  0.01141764     0.84200
C14         C  0.60121100  0.49208999  0.92079586     0.90500
O15         O  0.34005882  0.46860683  0.03863440    -0.73200
O16         O  0.33664260  0.52083732  0.97438267    -0.74200
O17         O  0.30419364  0.49816353  0.01281777    -0.62800
O18         O  0.37210215  0.49182691  0.00056791    -0.71300
O19         O  0.36650425  0.45814371  0.97104783    -0.70800
O20         O  0.29813656  0.46550877  0.98204329    -0.62100
O21         O  0.33065798  0.48717401  0.94485879    -0.74600
O22         O  0.33370596  0.43596454  0.00813429    -0.73300
Cu23       Cu  0.33843246  0.49602801  0.00772337     1.04600
Cu24       Cu  0.33204072  0.46053438  0.97553040     1.04300
C25         C  0.33743688  0.44389549  0.03333845     0.93000
C26         C  0.33324452  0.51190879  0.94942290     0.92100
C27         C  0.29050186  0.48303077  0.99914282     0.84200
C28         C  0.38005603  0.47424323  0.98377303     0.90500
C29         C  0.34531679  0.53738170  0.71128125     0.86200
C30         C  0.34157941  0.56308701  0.69506979    -0.54000
C31         C  0.35165829  0.58484361  0.70695706     0.09100
C32         C  0.36379053  0.57914294  0.73520471     0.20100
C33         C  0.37154955  0.53549241  0.71542574    -0.54800
C34         C  0.38136504  0.55733939  0.72778545     0.09200
C35         C  0.33601634  0.54323010  0.74086702    -0.54300
C36         C  0.34560125  0.56501403  0.75356255     0.09800
H37         H  0.33262847  0.56370885  0.67491112     0.14300
H38         H  0.37148891  0.59692074  0.74536023     0.00000
H39         H  0.38152885  0.51871318  0.70788712     0.14600
H40         H  0.32435815  0.53034124  0.75213159     0.14400
C41         C  0.33866802  0.28288390  0.22903414     0.86200
C42         C  0.33182296  0.25716216  0.21332590    -0.54000
C43         C  0.34197564  0.25420621  0.18738360     0.09100
C44         C  0.35751407  0.27765710  0.17914880     0.20100
C45         C  0.36510573  0.28236070  0.22935734    -0.54800
C46         C  0.37503756  0.27955719  0.20341886     0.09200
C47         C  0.33244486  0.30507916  0.20838890    -0.54300
C48         C  0.34255594  0.30267372  0.18249337     0.09800
H49         H  0.32064756  0.24197238  0.22177428     0.14300
H50         H  0.36568380  0.27541557  0.15810238     0.00000
H51         H  0.37510189  0.28436564  0.24866438     0.14600
H52         H  0.32171363  0.32186821  0.21416627     0.14400
N53         N  0.28504338  0.32426782  0.47576746    -0.27600
N54         N  0.27066694  0.30440383  0.47135058    -0.35400
C55         C  0.27497265  0.29361295  0.44601758     0.00800
C56         C  0.29291815  0.30741893  0.43360009     0.06800
C57         C  0.29895513  0.32674497  0.45320832    -0.06300
H58         H  0.26439993  0.27837523  0.43641526     0.07400
H59         H  0.31168108  0.34225194  0.45077808     0.08600
Cu60       Cu  0.24200231  0.29752993  0.49582616     0.44200
Cu61       Cu  0.28223252  0.34851777  0.51078340     0.42000
Cu62       Cu  0.22682595  0.34727367  0.54752615     0.43900
N63         N  0.20886820  0.30369956  0.50985091    -0.35000
N64         N  0.20299674  0.32303953  0.52732179    -0.29200
C65         C  0.17988556  0.32516969  0.52752343    -0.05300
C66         C  0.17099354  0.30604012  0.50961817     0.06900
C67         C  0.18973123  0.29278366  0.49875154     0.00700
H68         H  0.17033750  0.34017072  0.53894851     0.08300
H69         H  0.18958889  0.27778066  0.48237545     0.07400
N70         N  0.25543529  0.36830055  0.56148537    -0.36400
N71         N  0.27526326  0.36876576  0.54773692    -0.28600
C72         C  0.29007243  0.38464625  0.56144575    -0.03800
C73         C  0.27915434  0.39481387  0.58503074     0.04800
C74         C  0.25720162  0.38389798  0.58451097     0.02900
H75         H  0.30752421  0.38848969  0.55453324     0.08000
H76         H  0.24331159  0.38760948  0.59922602     0.06800
C77         C  0.34289818  0.77908116  0.55160472     0.86200
C78         C  0.33682986  0.80122654  0.57267817    -0.54000
C79         C  0.34855917  0.79988278  0.59778774     0.09100
C80         C  0.36512218  0.77609956  0.59948666     0.20100
C81         C  0.36928348  0.78038172  0.54878093    -0.54800
C82         C  0.38091158  0.77930096  0.57379055     0.09200
C83         C  0.33866658  0.75317286  0.56785091    -0.54300
C84         C  0.35039650  0.75159423  0.59278530     0.09800
H85         H  0.32463458  0.81682562  0.56771344     0.14300
H86         H  0.37490981  0.77465531  0.61950650     0.00000
H87         H  0.37799120  0.78243480  0.52862166     0.14600
H88         H  0.32833042  0.73675809  0.56028923     0.14400
C89         C  0.33658409  0.03127025  0.07930561     0.86200
C90         C  0.32560102  0.03591492  0.05029947    -0.54000
C91         C  0.33370346  0.05777920  0.03635724     0.09100
C92         C  0.35191443  0.07357045  0.05348135     0.20100
C93         C  0.36270499  0.03089800  0.07299398    -0.54800
C94         C  0.37071036  0.05295675  0.05960551     0.09200
C95         C  0.33264069  0.05709673  0.09553805    -0.54300
C96         C  0.34095928  0.07933301  0.08259550     0.09800
H97         H  0.31408461  0.02153337  0.04059124     0.14300
H98         H  0.35850055  0.09146335  0.04259468     0.00000
H99         H  0.37422009  0.01473636  0.07788440     0.14600
H100        H  0.32447373  0.05746676  0.11615004     0.14400
N101        N  0.27466918  0.81419535  0.30987000    -0.27600
N102        N  0.25681939  0.79968885  0.31767304    -0.35400
C103        C  0.26054388  0.79009849  0.34358577     0.00800
C104        C  0.28176768  0.79900750  0.35295042     0.06800
C105        C  0.29029345  0.81432461  0.33098680    -0.06300
H106        H  0.24794388  0.77888684  0.35540359     0.07400
H107        H  0.30631210  0.82532612  0.33064166     0.08600
Cu108      Cu  0.22605516  0.79737861  0.29629540     0.44200
Cu109      Cu  0.27529311  0.83471729  0.27177504     0.42000
Cu110      Cu  0.21859665  0.83947649  0.23744306     0.43900
N111        N  0.19419474  0.80599216  0.27978556    -0.35000
N112        N  0.19122681  0.82200503  0.25811552    -0.29200
C113        C  0.16852856  0.82626810  0.25448283    -0.05300
C114        C  0.15690156  0.81225377  0.27498865     0.06900
C115        C  0.17357188  0.79969998  0.29072503     0.00700
H116        H  0.16116824  0.83951137  0.23900163     0.08300
H117        H  0.17100850  0.78790673  0.30948613     0.07400
N118        N  0.24849973  0.85633315  0.22201709    -0.36400
N119        N  0.26903995  0.85462931  0.23404350    -0.28600
C120        C  0.28408032  0.86931263  0.21914383    -0.03800
C121        C  0.27239707  0.88101700  0.19681615     0.04800
C122        C  0.24988926  0.87213764  0.19937079     0.02900
H123        H  0.30191758  0.87229555  0.22507623     0.08000
H124        H  0.23528520  0.87731600  0.18630413     0.06800
O125        O  0.59920022  0.98950456  0.73724464    -0.73200
O126        O  0.60552162  0.03642408  0.80554585    -0.74200
O127        O  0.63681417  0.01403392  0.76490425    -0.62800
O128        O  0.56857027  0.01166556  0.77766391    -0.71300
O129        O  0.57320322  0.97764516  0.80663820    -0.70800
O130        O  0.64016478  0.97673954  0.78940313    -0.62100
O131        O  0.61227244  0.00078416  0.83167795    -0.74600
O132        O  0.60079149  0.95428107  0.76522545    -0.73300
Cu133      Cu  0.60246789  0.01427623  0.77037544     1.04600
Cu134      Cu  0.60686516  0.97621800  0.79921696     1.04300
C135        C  0.59844841  0.96445028  0.74081475     0.93000
C136        C  0.60935430  0.02575536  0.82949192     0.92100
C137        C  0.64896404  0.99484360  0.77413408     0.84200
C138        C  0.56015160  0.99439260  0.79441379     0.90500
O139        O  0.30952413  0.98352590  0.77638982    -0.73200
O140        O  0.37744368  0.99237953  0.78463985    -0.74200
O141        O  0.34830317  0.96297881  0.74741317    -0.62800
O142        O  0.33877379  0.01244507  0.81383963    -0.71300
O143        O  0.33827479  0.97736051  0.84201051    -0.70800
O144        O  0.35102317  0.92915961  0.77694122    -0.62100
O145        O  0.37860329  0.95891833  0.81481937    -0.74600
O146        O  0.31101115  0.94769387  0.80350061    -0.73300
Cu147      Cu  0.34351109  0.98908010  0.77953146     1.04600
Cu148      Cu  0.34479880  0.95214476  0.81037209     1.04300
C149        C  0.29973807  0.96377155  0.78803075     0.93000
C150        C  0.38875517  0.97738988  0.80128050     0.92100
C151        C  0.35095319  0.93814082  0.75179815     0.84200
C152        C  0.33679071  0.00234630  0.83841898     0.90500
C153        C  0.59021536  0.79442076  0.55445661     0.86200
C154        C  0.59642132  0.77024110  0.57269049    -0.54000
C155        C  0.58600499  0.76986035  0.59859127     0.09100
C156        C  0.57003070  0.79377639  0.60370711     0.20100
C157        C  0.56381089  0.79392877  0.55301406    -0.54800
C158        C  0.55315388  0.79388434  0.57864660     0.09200
C159        C  0.59598752  0.81837204  0.57306807    -0.54300
C160        C  0.58542391  0.81833266  0.59886254     0.09800
H161        H  0.60722256  0.75408151  0.56575357     0.14300
H162        H  0.56142299  0.79341557  0.62450731     0.00000
H163        H  0.55432492  0.79399996  0.53321649     0.14600
H164        H  0.60676464  0.83448670  0.56564752     0.14400
C165        C  0.57789625  0.03458507  0.06982710     0.86200
C166        C  0.58035029  0.06040599  0.08664545    -0.54000
C167        C  0.57102598  0.08220990  0.07395375     0.09100
C168        C  0.56039325  0.07616619  0.04480173     0.20100
C169        C  0.55198285  0.03225502  0.06339559    -0.54800
C170        C  0.54267043  0.05402105  0.05058456     0.09200
C171        C  0.58867395  0.04066348  0.04103522    -0.54300
C172        C  0.57975039  0.06242555  0.02783544     0.09800
H173        H  0.58858554  0.06113420  0.10723959     0.14300
H174        H  0.55289702  0.09374393  0.03423743     0.00000
H175        H  0.54171705  0.01523559  0.06958442     0.14600
H176        H  0.60092827  0.02785376  0.03056242     0.14400
N177        N  0.64348350  0.82195395  0.30734173    -0.27600
N178        N  0.66004012  0.80453440  0.31183555    -0.35400
C179        C  0.65779655  0.79456023  0.33785677     0.00800
C180        C  0.63895356  0.80633974  0.35063441     0.06800
C181        C  0.63015310  0.82347491  0.33048897    -0.06300
H182        H  0.67039397  0.78172780  0.34761978     0.07400
H183        H  0.61609712  0.83734085  0.33300409     0.08600
Cu184      Cu  0.68898973  0.80097811  0.28719799     0.44200
Cu185      Cu  0.64283701  0.84653732  0.27249282     0.42000
Cu186      Cu  0.69936442  0.85616354  0.24148416     0.43900
N187        N  0.72141722  0.81256518  0.27502110    -0.35000
N188        N  0.72545171  0.83413092  0.26007157    -0.29200
C189        C  0.74820834  0.83932691  0.26072154    -0.05300
C190        C  0.75875950  0.81991283  0.27663342     0.06900
C191        C  0.74140462  0.80321102  0.28526238     0.00700
H192        H  0.75635618  0.85623081  0.25089246     0.08300
H193        H  0.74294916  0.78658038  0.29947467     0.07400
N194        N  0.66942205  0.87343635  0.22608964    -0.36400
N195        N  0.64885792  0.87003564  0.23753431    -0.28600
C196        C  0.63319534  0.88383702  0.22272582    -0.03800
C197        C  0.64436775  0.89648313  0.20069840     0.04800
C198        C  0.66735658  0.88937418  0.20355772     0.02900
H199        H  0.61498111  0.88433488  0.22759045     0.08000
H200        H  0.68165754  0.89557517  0.19051414     0.06800
C201        C  0.58553473  0.54511654  0.67820198     0.86200
C202        C  0.59615258  0.54245133  0.70762964    -0.54000
C203        C  0.58912553  0.56115580  0.72677608     0.09100
C204        C  0.57187425  0.58129105  0.71429540     0.20100
C205        C  0.55931060  0.54523208  0.68368203    -0.54800
C206        C  0.55220377  0.56389196  0.70268865     0.09200
C207        C  0.59102752  0.57352110  0.66922419    -0.54300
C208        C  0.58408256  0.59256190  0.68798477     0.09800
H209        H  0.60733165  0.52599483  0.71304862     0.14300
H210        H  0.56609692  0.59670369  0.72946224     0.00000
H211        H  0.54696006  0.53192447  0.67405628     0.14600
H212        H  0.59948585  0.57813152  0.64939616     0.14400
C213        C  0.58659838  0.28355167  0.21926645     0.86200
C214        C  0.59260234  0.30595545  0.19868797    -0.54000
C215        C  0.58057488  0.30496427  0.17380518     0.09100
C216        C  0.56358493  0.28146453  0.17176777     0.20100
C217        C  0.56028824  0.28518837  0.22273121    -0.54800
C218        C  0.54820176  0.28402738  0.19798738     0.09200
C219        C  0.59025925  0.25785031  0.20203070    -0.54300
C220        C  0.57797542  0.25661428  0.17745551     0.09800
H221        H  0.60528964  0.32117647  0.20345113     0.14300
H222        H  0.55363498  0.28024541  0.15178995     0.00000
H223        H  0.55197886  0.28682919  0.24319818     0.14600
H224        H  0.60037363  0.24105711  0.20872970     0.14400
N225        N  0.65189330  0.31428716  0.46128565    -0.27600
N226        N  0.66914016  0.29840990  0.45464485    -0.35400
C227        C  0.66422420  0.28604040  0.43019641     0.00800
C228        C  0.64299257  0.29491967  0.42071864     0.06800
C229        C  0.63559048  0.31262895  0.44118481    -0.06300
H230        H  0.67646434  0.27420754  0.41842432     0.07400
H231        H  0.62057327  0.32529183  0.44024146     0.08600
Cu232      Cu  0.70127009  0.30158845  0.47327339     0.44200
Cu233      Cu  0.65422094  0.34257738  0.49268336     0.42000
Cu234      Cu  0.71149746  0.36614931  0.50738601     0.43900
N235        N  0.73348522  0.31701688  0.48234115    -0.35000
N236        N  0.73713122  0.34130026  0.49204944    -0.29200
C237        C  0.75990263  0.34628010  0.49166964    -0.05300
C238        C  0.77099721  0.32395249  0.48170153     0.06900
C239        C  0.75385700  0.30569541  0.47620278     0.00700
H240        H  0.76781554  0.36457169  0.49873518     0.08300
H241        H  0.75593144  0.28603472  0.46738972     0.07400
N242        N  0.68221404  0.38242782  0.52566067    -0.36400
N243        N  0.66136108  0.37304007  0.52052041    -0.28600
C244        C  0.64592837  0.38660811  0.53581706    -0.03800
C245        C  0.65747928  0.40562909  0.55163723     0.04800
C246        C  0.68057567  0.40237000  0.54454946     0.02900
H247        H  0.62758285  0.38287715  0.53501107     0.08000
H248        H  0.69517108  0.41340885  0.55262865     0.06800
O249        O  0.09641198  0.30536053  0.53607573    -0.73200
O250        O  0.10600473  0.26053755  0.46621478    -0.74200
O251        O  0.13533300  0.28336132  0.50885047    -0.62800
O252        O  0.06753734  0.28261879  0.49399775    -0.71300
O253        O  0.07079387  0.31786459  0.46645388    -0.70800
O254        O  0.13794129  0.32150121  0.48574404    -0.62100
O255        O  0.11148939  0.29751792  0.44182063    -0.74600
O256        O  0.09715370  0.34138764  0.50925636    -0.73300
Cu257      Cu  0.10125792  0.28157899  0.50215417     1.04600
Cu258      Cu  0.10455369  0.32074167  0.47483134     1.04300
C259        C  0.09477098  0.33047369  0.53328085     0.93000
C260        C  0.11012779  0.27231080  0.44292603     0.92100
C261        C  0.14703595  0.30334380  0.50075269     0.84200
C262        C  0.05839145  0.30003789  0.47802615     0.90500
O263        O  0.84609403  0.35277678  0.50206847    -0.73200
O264        O  0.83814434  0.31810262  0.42717012    -0.74200
O265        O  0.80785323  0.33957571  0.46859985    -0.62800
O266        O  0.87625064  0.33180470  0.46158849    -0.71300
O267        O  0.87400852  0.29419286  0.48548482    -0.70800
O268        O  0.80521699  0.29870375  0.48558336    -0.62100
O269        O  0.83915629  0.27855558  0.44756261    -0.74600
O270        O  0.84052404  0.31421544  0.52354474    -0.73300
Cu271      Cu  0.84209215  0.33689867  0.46404490     1.04600
Cu272      Cu  0.83961469  0.29495946  0.48625258     1.04300
C273        C  0.84409688  0.33917491  0.52454683     0.93000
C274        C  0.83844916  0.29286250  0.42540892     0.92100
C275        C  0.79581666  0.32047279  0.47825055     0.84200
C276        C  0.88602535  0.31201573  0.47327310     0.90500
C277        C  0.83202397  0.50715586  0.71157946     0.86200
C278        C  0.82632606  0.48261935  0.69354890    -0.54000
C279        C  0.83818625  0.48140719  0.66866455     0.09100
C280        C  0.85384085  0.50556843  0.66353969     0.20100
C281        C  0.85844779  0.50697350  0.71429859    -0.54800
C282        C  0.86983743  0.50585823  0.68925951     0.09200
C283        C  0.82685566  0.53083914  0.69214748    -0.54300
C284        C  0.83827542  0.53013297  0.66685156     0.09800
H285        H  0.81540911  0.46664120  0.70103797     0.14300
H286        H  0.86311053  0.50461297  0.64318656     0.00000
H287        H  0.86739542  0.50680137  0.73447191     0.14600
H288        H  0.81610830  0.54739366  0.69804991     0.14400
C289        C  0.85977181  0.25563538  0.17345002     0.86200
C290        C  0.85301323  0.26133467  0.20400577    -0.54000
C291        C  0.86090064  0.24328054  0.22316602     0.09100
C292        C  0.87551920  0.22107798  0.20956533     0.20100
C293        C  0.88625097  0.25356527  0.17412170    -0.54800
C294        C  0.89459095  0.23535061  0.19282589     0.09200
C295        C  0.85171629  0.22714984  0.16777799    -0.54300
C296        C  0.85984638  0.20901771  0.18663113     0.09800
H297        H  0.84308969  0.27875518  0.20971725     0.14300
H298        H  0.88201322  0.20612960  0.22464589     0.00000
H299        H  0.89772455  0.26493577  0.16090810     0.14600
H300        H  0.84124638  0.22172602  0.14961737     0.14400
N301        N  0.78385439  0.48424752  0.95841270    -0.27600
N302        N  0.76506324  0.49807045  0.95289879    -0.35400
C303        C  0.76778055  0.51053618  0.92813898     0.00800
C304        C  0.78912772  0.50383000  0.91725426     0.06800
C305        C  0.79896836  0.48743620  0.93727475    -0.06300
H306        H  0.75395014  0.52034693  0.91695506     0.07400
H307        H  0.81470696  0.47611981  0.93512888     0.08600
Cu308      Cu  0.73370113  0.49106786  0.97201020     0.44200
Cu309      Cu  0.78539022  0.45492398  0.98845759     0.42000
Cu310      Cu  0.72968266  0.42501250  0.00001678     0.43900
N311        N  0.70291101  0.47144426  0.97837890    -0.35000
N312        N  0.70157759  0.44635430  0.98610810    -0.29200
C313        C  0.67948736  0.43834474  0.98452391    -0.05300
C314        C  0.66641503  0.45960115  0.97574630     0.06900
C315        C  0.68167260  0.48029374  0.97222862     0.00700
H316        H  0.67337545  0.41877749  0.99003905     0.08300
H317        H  0.67775493  0.50004381  0.96485431     0.07400
N318        N  0.75996857  0.41101995  0.01732908    -0.36400
N319        N  0.78033670  0.42211080  0.01343027    -0.28600
C320        C  0.79627315  0.40869572  0.02814339    -0.03800
C321        C  0.78538010  0.38814158  0.04222272     0.04800
C322        C  0.76231488  0.39034292  0.03477518     0.02900
H323        H  0.81436922  0.41385760  0.02858931     0.08000
H324        H  0.74808599  0.37808283  0.04155524     0.06800
C325        C  0.85036755  0.75531485  0.58240624     0.86200
C326        C  0.84498732  0.72764141  0.59394045    -0.54000
C327        C  0.85196916  0.70728060  0.57683058     0.09100
C328        C  0.86392023  0.71648083  0.54948296     0.20100
C329        C  0.87654189  0.75468014  0.57665353    -0.54800
C330        C  0.88367711  0.73480029  0.55911487     0.09200
C331        C  0.83940377  0.75552645  0.55291054    -0.54300
C332        C  0.84631665  0.73520238  0.53563461     0.09800
H333        H  0.83650125  0.72447997  0.61407406     0.14300
H334        H  0.86944047  0.69996482  0.53554025     0.00000
H335        H  0.88894662  0.76818415  0.58570882     0.14600
H336        H  0.82758004  0.77092216  0.54614352     0.14400
C337        C  0.84561688  0.00842800  0.05533073     0.86200
C338        C  0.83930015  0.03176694  0.07507343    -0.54000
C339        C  0.85012115  0.03107331  0.10077525     0.09100
C340        C  0.86604751  0.00703327  0.10435963     0.20100
C341        C  0.87207717  0.00944615  0.05384737    -0.54800
C342        C  0.88286062  0.00884017  0.07945242     0.09200
C343        C  0.84006698  0.98353798  0.07255116    -0.54300
C344        C  0.85064714  0.98284037  0.09824815     0.09800
H345        H  0.82857939  0.04831772  0.06911855     0.14300
H346        H  0.87476539  0.00614405  0.12514295     0.00000
H347        H  0.88140523  0.01075348  0.03403554     0.14600
H348        H  0.82824254  0.96824037  0.06531340     0.14400
N349        N  0.78764459  0.98284122  0.80911749    -0.27600
N350        N  0.77132113  0.00052026  0.81379418    -0.35400
C351        C  0.77441566  0.01133878  0.83946291     0.00800
C352        C  0.79362470  0.99983389  0.85176725     0.06800
C353        C  0.80166336  0.98199502  0.83168604    -0.06300
H354        H  0.76232136  0.02479393  0.84929936     0.07400
H355        H  0.81572111  0.96810407  0.83386585     0.08600
Cu356      Cu  0.74250465  0.00422886  0.78874486     0.44200
Cu357      Cu  0.78729452  0.95678878  0.77519075     0.42000
Cu358      Cu  0.73126268  0.94630852  0.74470937     0.43900
N359        N  0.71088662  0.99559553  0.77127291    -0.35000
N360        N  0.70644800  0.97357534  0.75702654    -0.29200
C361        C  0.68351522  0.97111549  0.75407662    -0.05300
C362        C  0.67320388  0.99279676  0.76663563     0.06900
C363        C  0.69095966  0.00789689  0.77740429     0.00700
H364        H  0.67493511  0.95402556  0.74501070     0.08300
H365        H  0.68943824  0.02496716  0.79116231     0.07400
N366        N  0.76012061  0.92468189  0.73294905    -0.36400
N367        N  0.78081305  0.92915812  0.74364836    -0.28600
C368        C  0.79606443  0.91289720  0.73116875    -0.03800
C369        C  0.78447072  0.89725657  0.71156970     0.04800
C370        C  0.76163283  0.90534098  0.71339134     0.02900
H371        H  0.81423560  0.91246423  0.73629702     0.08000
H372        H  0.74719523  0.89814396  0.70107294     0.06800
O373        O  0.05183167  0.79877434  0.28511077    -0.73200
O374        O  0.11886643  0.79732438  0.26787141    -0.74200
O375        O  0.08952511  0.77024255  0.30645703    -0.62800
O376        O  0.08093767  0.82649744  0.24708170    -0.71300
O377        O  0.08615444  0.85735739  0.27993813    -0.70800
O378        O  0.09596286  0.80223981  0.33790198    -0.62100
O379        O  0.12473687  0.82908249  0.29977111    -0.74600
O380        O  0.05686936  0.82993155  0.31772329    -0.73300
Cu381      Cu  0.08506900  0.79711838  0.27544512     1.04600
Cu382      Cu  0.09113400  0.83075293  0.30992997     1.04300
C383        C  0.04367394  0.81397900  0.30422392     0.93000
C384        C  0.13234102  0.81301664  0.28108041     0.92100
C385        C  0.09405145  0.77775682  0.33166544     0.84200
C386        C  0.08238809  0.85091463  0.25429646     0.90500
O387        O  0.79179561  0.83611721  0.30045632    -0.73200
O388        O  0.85959268  0.83348124  0.31893561    -0.74200
O389        O  0.83169750  0.85799040  0.27728375    -0.62800
O390        O  0.81909585  0.81117140  0.34288303    -0.71300
O391        O  0.82465889  0.77563544  0.31591316    -0.70800
O392        O  0.83355878  0.82318803  0.24867152    -0.62100
O393        O  0.86271969  0.79924924  0.28969983    -0.74600
O394        O  0.79516546  0.79932649  0.27483202    -0.73300
Cu395      Cu  0.82539092  0.83590041  0.31091621     1.04600
Cu396      Cu  0.82914990  0.79809704  0.28132981     1.04300
C397        C  0.78301498  0.81834500  0.28444942     0.93000
C398        C  0.87189345  0.81572940  0.30689862     0.92100
C399        C  0.83384270  0.84828333  0.25250765     0.84200
C400        C  0.82066706  0.78607368  0.34002111     0.90500
C401        C  0.07796253  0.50145727  0.71889743     0.86200
C402        C  0.08356509  0.52588405  0.70082974    -0.54000
C403        C  0.07424380  0.52532733  0.67438321     0.09100
C404        C  0.05955188  0.50052282  0.66850554     0.20100
C405        C  0.05152501  0.50013035  0.71884691    -0.54800
C406        C  0.04186092  0.49931996  0.69259828     0.09200
C407        C  0.08547233  0.47771516  0.70075766    -0.54300
C408        C  0.07575076  0.47686819  0.67435612     0.09800
H409        H  0.09329770  0.54287529  0.70802741     0.14300
H410        H  0.05168966  0.50065708  0.64721985     0.00000
H411        H  0.04130649  0.49941358  0.73803651     0.14600
H412        H  0.09660552  0.46230886  0.70898650     0.14400
C413        C  0.10080939  0.26555942  0.19535478     0.86200
C414        C  0.10864960  0.23963548  0.18162902    -0.54000
C415        C  0.10011545  0.21721756  0.19401728     0.09100
C416        C  0.08498381  0.22293640  0.22014454     0.20100
C417        C  0.07436766  0.26366340  0.19617561    -0.54800
C418        C  0.06606111  0.24129470  0.20867394     0.09200
C419        C  0.10802824  0.26301463  0.22639772    -0.54300
C420        C  0.09996274  0.24072116  0.23946067     0.09800
H421        H  0.11932821  0.23928582  0.16281922     0.14300
H422        H  0.07804638  0.20491593  0.23047181     0.00000
H423        H  0.06309561  0.27828081  0.18659628     0.14600
H424        H  0.11763193  0.27797371  0.23788697     0.14400
N425        N  0.14856069  0.48516809  0.96238716    -0.27600
N426        N  0.16697670  0.49724024  0.95222464    -0.35400
C427        C  0.16291209  0.50450218  0.92546227     0.00800
C428        C  0.14089347  0.49640429  0.91814190     0.06800
C429        C  0.13227458  0.48423605  0.94214321    -0.06300
H430        H  0.17567598  0.51338992  0.91180582     0.07400
H431        H  0.11571658  0.47460699  0.94449030     0.08600
Cu432      Cu  0.19822326  0.49905221  0.97279741     0.44200
Cu433      Cu  0.14758134  0.46811230  0.00226739     0.42000
Cu434      Cu  0.20158684  0.47027750  0.04177482     0.43900
N435        N  0.22889096  0.49222892  0.99344537    -0.35000
N436        N  0.23026931  0.48240030  0.01920644    -0.29200
C437        C  0.25261054  0.47855214  0.02571694    -0.05300
C438        C  0.26568719  0.48608639  0.00276803     0.06900
C439        C  0.25020068  0.49450359  0.98264560     0.00700
H440        H  0.25874575  0.46950259  0.04497581     0.08300
H441        H  0.25404769  0.50100737  0.96142888     0.07400
N442        N  0.17187971  0.45175382  0.05589938    -0.36400
N443        N  0.15241384  0.45037347  0.04139503    -0.28600
C444        C  0.13791455  0.43366798  0.05457505    -0.03800
C445        C  0.14879774  0.42395464  0.07850998     0.04800
C446        C  0.17025151  0.43608960  0.07866493     0.02900
H447        H  0.12114487  0.42807327  0.04648123     0.08000
H448        H  0.18438356  0.43227288  0.09300269     0.06800
C449        C  0.09228184  0.74413717  0.57460718     0.86200
C450        C  0.10097172  0.74228399  0.54398869    -0.54000
C451        C  0.09063728  0.72267488  0.52837637     0.09100
C452        C  0.07274130  0.70647514  0.54505403     0.20100
C453        C  0.06600007  0.74716655  0.57128460    -0.54800
C454        C  0.05561397  0.72750050  0.55585940     0.09200
C455        C  0.09572606  0.71645728  0.58673370    -0.54300
C456        C  0.08572091  0.69658521  0.57141838     0.09800
H457        H  0.11244532  0.75672697  0.53457678     0.14300
H458        H  0.06475977  0.69035469  0.53242908     0.00000
H459        H  0.05648042  0.76358209  0.58042349     0.14600
H460        H  0.10496621  0.71307332  0.60634840     0.14400
C461        C  0.09206637  0.00866795  0.05837253     0.86200
C462        C  0.09543644  0.98693380  0.08036430    -0.54000
C463        C  0.08515064  0.99202644  0.10572480     0.09100
C464        C  0.07271667  0.01890562  0.10699697     0.20100
C465        C  0.06579210  0.01274292  0.05672668    -0.54800
C466        C  0.05562852  0.01775008  0.08221649     0.09200
C467        C  0.10084403  0.03415863  0.07267421    -0.54300
C468        C  0.09067779  0.03964943  0.09797453     0.09800
H469        H  0.10473547  0.96873319  0.07587389     0.14300
H470        H  0.06428340  0.02341749  0.12747357     0.00000
H471        H  0.05599129  0.01089894  0.03726393     0.14600
H472        H  0.11280151  0.04795974  0.06317155     0.14400
N473        N  0.16377868  0.93851126  0.82715273    -0.27600
N474        N  0.17752651  0.95935145  0.82854209    -0.35400
C475        C  0.17311681  0.97292202  0.85223134     0.00800
C476        C  0.15577004  0.96002142  0.86679883     0.06800
C477        C  0.15014964  0.93829082  0.85010746    -0.06300
H478        H  0.18267755  0.99031481  0.85868705     0.07400
H479        H  0.13778838  0.92284956  0.85472135     0.08600
Cu480      Cu  0.20506859  0.96620684  0.80234456     0.44200
Cu481      Cu  0.16533924  0.91095405  0.79480905     0.42000
Cu482      Cu  0.21859547  0.91328081  0.75544574     0.43900
N483        N  0.23763560  0.96017381  0.78666138    -0.35000
N484        N  0.24293706  0.93943087  0.77087643    -0.29200
C485        C  0.26595384  0.93799427  0.76833584    -0.05300
C486        C  0.27537954  0.95904479  0.78296622     0.06900
C487        C  0.25709046  0.97276670  0.79437076     0.00700
H488        H  0.27512179  0.92241076  0.75734280     0.08300
H489        H  0.25790044  0.98948260  0.80871484     0.07400
N490        N  0.19008630  0.89171989  0.74288286    -0.36400
N491        N  0.17071227  0.89057908  0.75743674    -0.28600
C492        C  0.15530742  0.87589892  0.74307139    -0.03800
C493        C  0.16542800  0.86736705  0.71808995     0.04800
C494        C  0.18755348  0.87785172  0.71882797     0.02900
H495        H  0.13788464  0.87233535  0.75020776     0.08000
H496        H  0.20089101  0.87588482  0.70304331     0.06800
C497        C  0.10289762  0.00126979  0.03017718    -0.01600
C498        C  0.12351401  0.01284631  0.02079925    -0.09600
C499        C  0.13289321  0.00616521  0.99476318    -0.18400
C500        C  0.12214151  0.98731384  0.97700949     0.04000
C501        C  0.10187947  0.97461488  0.98695533     0.18100
C502        C  0.09273241  0.98133787  0.01344939    -0.19900
C503        C  0.09076820  0.95549401  0.97028575    -0.21100
C504        C  0.09920720  0.94902136  0.94366342    -0.19700
C505        C  0.11902356  0.96141269  0.93317738     0.19500
C506        C  0.13084267  0.98061716  0.94980843     0.01600
C507        C  0.15081350  0.99246938  0.93842400    -0.14400
C508        C  0.15865643  0.98565966  0.91169988    -0.12100
C509        C  0.14694323  0.96690854  0.89517333     0.01200
C510        C  0.12711152  0.95477520  0.90611283    -0.24300
H511        H  0.13310664  0.02673507  0.03357230     0.09200
H512        H  0.14867644  0.01614283  0.98933628     0.12800
H513        H  0.07736753  0.97132352  0.02092853     0.11500
H514        H  0.07533199  0.94565507  0.97777970     0.12700
H515        H  0.09013473  0.93429107  0.93116260     0.11700
H516        H  0.16087525  0.00711459  0.94950939     0.08800
H517        H  0.17420250  0.99515884  0.90425129     0.12000
H518        H  0.11781238  0.94029031  0.89356685     0.13900
C519        C  0.10330288  0.76514041  0.59353881    -0.01600
C520        C  0.12540260  0.77542451  0.58823669    -0.09600
C521        C  0.13596147  0.79289512  0.60724754    -0.18400
C522        C  0.12486224  0.80055816  0.63255725     0.04000
C523        C  0.10269772  0.78977076  0.63809899     0.18100
C524        C  0.09242518  0.77208995  0.61898098    -0.19900
C525        C  0.09099839  0.79625899  0.66297994    -0.21100
C526        C  0.10100789  0.81298841  0.68282118    -0.19700
C527        C  0.12293805  0.82369233  0.67823139     0.19500
C528        C  0.13511957  0.81793175  0.65292151     0.01600
C529        C  0.15706638  0.82966438  0.64929438    -0.14400
C530        C  0.16669843  0.84579391  0.67024287    -0.12100
C531        C  0.15484277  0.85089279  0.69547517     0.01200
C532        C  0.13281602  0.83993569  0.69906954    -0.24300
H533        H  0.13512386  0.76939058  0.56987213     0.09200
H534        H  0.15301268  0.79962042  0.60176721     0.12800
H535        H  0.07592446  0.76329282  0.62423705     0.11500
H536        H  0.07404863  0.78813549  0.66725689     0.12700
H537        H  0.09158430  0.81742562  0.70200941     0.11700
H538        H  0.16725806  0.82675072  0.63054504     0.08800
H539        H  0.18357616  0.85419696  0.66648937     0.12000
H540        H  0.12328341  0.84365424  0.71829712     0.13900
C541        C  0.10160606  0.19086869  0.17999063    -0.01600
C542        C  0.10143383  0.18945009  0.15044700    -0.09600
C543        C  0.10120044  0.16523185  0.13648741    -0.18400
C544        C  0.10071039  0.14120538  0.15159699     0.04000
C545        C  0.10151067  0.14249346  0.18157389     0.18100
C546        C  0.10187257  0.16724238  0.19549722    -0.19900
C547        C  0.10154194  0.11908233  0.19736204    -0.21100
C548        C  0.10009828  0.09446248  0.18402563    -0.19700
C549        C  0.09840549  0.09264650  0.15458457     0.19500
C550        C  0.09894043  0.11604244  0.13795915     0.01600
C551        C  0.09703971  0.11332697  0.10835995    -0.14400
C552        C  0.09448138  0.08858075  0.09586144    -0.12100
C553        C  0.09386039  0.06556684  0.11219610     0.01200
C554        C  0.09581361  0.06764916  0.14159481    -0.24300
H555        H  0.10068532  0.20721272  0.13776217     0.09200
H556        H  0.10102932  0.16617760  0.11380346     0.12800
H557        H  0.10222630  0.16808771  0.21835558     0.11500
H558        H  0.10238871  0.11982598  0.22020333     0.12700
H559        H  0.09989547  0.07674069  0.19686078     0.11700
H560        H  0.09706200  0.12989074  0.09413797     0.08800
H561        H  0.09246948  0.08754749  0.07314592     0.12000
H562        H  0.09536721  0.04985041  0.15430394     0.13900
C563        C  0.10930207  0.28967727  0.17895285    -0.01600
C564        C  0.12669788  0.30666398  0.18904468    -0.09600
C565        C  0.13363055  0.32877545  0.17356757    -0.18400
C566        C  0.12335898  0.33487987  0.14731085     0.04000
C567        C  0.10638301  0.31717199  0.13662450     0.18100
C568        C  0.09991984  0.29473437  0.15212512    -0.19900
C569        C  0.09577928  0.32203782  0.11060598    -0.21100
C570        C  0.10157117  0.34429879  0.09497089    -0.19700
C571        C  0.11821029  0.36217561  0.10488279     0.19500
C572        C  0.12938287  0.35775509  0.13118776     0.01600
C573        C  0.14606528  0.37645497  0.14014404    -0.14400
C574        C  0.15181529  0.39814308  0.12335976    -0.12100
C575        C  0.14109468  0.40214183  0.09719924     0.01200
C576        C  0.12398544  0.38426528  0.08836310    -0.24300
H577        H  0.13553954  0.30294519  0.20866537     0.09200
H578        H  0.14711345  0.34070327  0.18279874     0.12800
H579        H  0.08710534  0.28128324  0.14347197     0.11500
H580        H  0.08281546  0.30858629  0.10233789     0.12700
H581        H  0.09301515  0.34750995  0.07492041     0.11700
H582        H  0.15512435  0.37482920  0.15992629     0.08800
H583        H  0.16484900  0.41180192  0.13095340     0.12000
H584        H  0.11561148  0.38696409  0.06812947     0.13900
C585        C  0.08678131  0.66850514  0.58063052    -0.01600
C586        C  0.10620825  0.65909079  0.59504962    -0.09600
C587        C  0.10620047  0.63403729  0.60728878    -0.18400
C588        C  0.08651130  0.61752769  0.60571983     0.04000
C589        C  0.06735037  0.62653317  0.58970143     0.18100
C590        C  0.06781827  0.65162827  0.57706085    -0.19900
C591        C  0.04742960  0.61095507  0.58743380    -0.21100
C592        C  0.04567150  0.58715434  0.60195161    -0.19700
C593        C  0.06383919  0.57832642  0.61896660     0.19500
C594        C  0.08476720  0.59300706  0.62044723     0.01600
C595        C  0.10273257  0.58298967  0.63748352    -0.14400
C596        C  0.09943877  0.56050231  0.65389744    -0.12100
C597        C  0.07827583  0.54706489  0.65387364     0.01200
C598        C  0.06088936  0.55543760  0.63539289    -0.24300
H599        H  0.12143713  0.67136155  0.59736203     0.09200
H600        H  0.12164089  0.62857186  0.61847095     0.12800
H601        H  0.05281960  0.65846299  0.56584423     0.11500
H602        H  0.03282907  0.61761696  0.57504417     0.12700
H603        H  0.02975665  0.57593798  0.60046753     0.11700
H604        H  0.11939001  0.59231809  0.63910386     0.08800
H605        H  0.11354989  0.55381577  0.66705758     0.12000
H606        H  0.04462851  0.54500590  0.63471352     0.13900
C607        C  0.08796191  0.50055868  0.74873073    -0.01600
C608        C  0.08140278  0.47971817  0.76654461    -0.09600
C609        C  0.08914727  0.47844691  0.79439161    -0.18400
C610        C  0.10414335  0.49795771  0.80550935     0.04000
C611        C  0.11171175  0.51834700  0.78714645     0.18100
C612        C  0.10360383  0.51953328  0.75926959    -0.19900
C613        C  0.12751559  0.53741865  0.79661644    -0.21100
C614        C  0.13614823  0.53653820  0.82394668    -0.19700
C615        C  0.12874514  0.51696664  0.84269834     0.19500
C616        C  0.11226999  0.49770984  0.83397372     0.01600
C617        C  0.10454038  0.47920588  0.85420994    -0.14400
C618        C  0.11341648  0.47927045  0.88161083    -0.12100
C619        C  0.13034469  0.49759200  0.88972126     0.01200
C620        C  0.13776297  0.51654544  0.87018684    -0.24300
H621        H  0.06989443  0.46435842  0.75887224     0.09200
H622        H  0.08329762  0.46175500  0.80655469     0.12800
H623        H  0.11009699  0.53519597  0.74610818     0.11500
H624        H  0.13343755  0.55298892  0.78268900     0.12700
H625        H  0.14859384  0.55138106  0.83051908     0.11700
H626        H  0.09155224  0.46452595  0.84958626     0.08800
H627        H  0.10733710  0.46444492  0.89627819     0.12000
H628        H  0.15052150  0.53116594  0.87641335     0.13900
C629        C  0.08040728  0.87211511  0.23305835    -0.01600
C630        C  0.08205216  0.89869440  0.24151632    -0.09600
C631        C  0.08186836  0.91900784  0.22175558    -0.18400
C632        C  0.08011948  0.91340306  0.19261541     0.04000
C633        C  0.07810866  0.88640884  0.18412780     0.18100
C634        C  0.07810047  0.86613259  0.20431574    -0.19900
C635        C  0.07661975  0.87975140  0.15550449    -0.21100
C636        C  0.07759545  0.89929969  0.13502180    -0.19700
C637        C  0.07987715  0.92597000  0.14270015     0.19500
C638        C  0.08078338  0.93352868  0.17158972     0.01600
C639        C  0.08251378  0.96087629  0.17808325    -0.14400
C640        C  0.08394554  0.97976198  0.15673778    -0.12100
C641        C  0.08372525  0.97204873  0.12838508     0.01200
C642        C  0.08135431  0.94514871  0.12154001    -0.24300
H643        H  0.08386179  0.90392567  0.26360566     0.09200
H644        H  0.08354761  0.93882754  0.23001035     0.12800
H645        H  0.07687297  0.84563154  0.19754561     0.11500
H646        H  0.07503604  0.85924679  0.14889078     0.12700
H647        H  0.07672888  0.89349241  0.11299203     0.11700
H648        H  0.08286056  0.96836298  0.19939796     0.08800
H649        H  0.08561313  0.00045113  0.16250417     0.12000
H650        H  0.08034595  0.93906930  0.09959966     0.13900
C651        C  0.09614550  0.75867623  0.35462212    -0.01600
C652        C  0.07654246  0.74522497  0.36389001    -0.09600
C653        C  0.07614540  0.73374355  0.39064238    -0.18400
C654        C  0.09546747  0.73570144  0.40887099     0.04000
C655        C  0.11603761  0.74713167  0.39799581     0.18100
C656        C  0.11613673  0.75860525  0.37111285    -0.19900
C657        C  0.13590256  0.74869316  0.41470947    -0.21100
C658        C  0.13533454  0.74093583  0.44278721    -0.19700
C659        C  0.11478836  0.73187747  0.45485473     0.19500
C660        C  0.09472186  0.72837108  0.43792228     0.01600
C661        C  0.07436157  0.71948437  0.45128603    -0.14400
C662        C  0.07352124  0.71623465  0.48047595    -0.12100
C663        C  0.09296963  0.72123451  0.49723264     0.01200
C664        C  0.11382213  0.72788775  0.48411795    -0.24300
H665        H  0.06091973  0.74533174  0.35129847     0.09200
H666        H  0.06018624  0.72451863  0.39684739     0.12800
H667        H  0.13129283  0.76914526  0.36376158     0.11500
H668        H  0.15173860  0.75693412  0.40632739     0.12700
H669        H  0.15076411  0.74330017  0.45550164     0.11700
H670        H  0.05846448  0.71616742  0.44002075     0.08800
H671        H  0.05711520  0.71130500  0.49000069     0.12000
H672        H  0.12906466  0.73133881  0.49691045     0.13900
C673        C  0.89692546  0.81372903  0.31238174    -0.01600
C674        C  0.90842732  0.79059639  0.30421978    -0.09600
C675        C  0.93222384  0.78863839  0.30633596    -0.18400
C676        C  0.94560704  0.81006011  0.31642548     0.04000
C677        C  0.93389086  0.83305729  0.32623024     0.18100
C678        C  0.90965298  0.83463358  0.32435980    -0.19900
C679        C  0.94653366  0.85460113  0.33681636    -0.21100
C680        C  0.97058101  0.85431000  0.33648877    -0.19700
C681        C  0.98255490  0.83249671  0.32550710     0.19500
C682        C  0.97018468  0.80979973  0.31598572     0.01600
C683        C  0.98291718  0.78818064  0.30522976    -0.14400
C684        C  0.00668309  0.78967042  0.30230409    -0.12100
C685        C  0.01877665  0.81246660  0.31037341     0.01200
C686        C  0.00675661  0.83353250  0.32293483    -0.24300
H687        H  0.89899295  0.77387021  0.29560462     0.09200
H688        H  0.93953854  0.77019901  0.29923681     0.12800
H689        H  0.90084838  0.85251527  0.33106899     0.11500
H690        H  0.93777415  0.87208445  0.34468333     0.12700
H691        H  0.97985667  0.87157369  0.34411034     0.11700
H692        H  0.97509133  0.76998865  0.29813412     0.08800
H693        H  0.01563773  0.77285326  0.29321059     0.12000
H694        H  0.01606736  0.85116318  0.32948081     0.13900
C695        C  0.03034647  0.01981192  0.08563931    -0.01600
C696        C  0.01927423  0.00683192  0.10788089    -0.09600
C697        C  0.99520836  0.00618135  0.10942439    -0.18400
C698        C  0.98149387  0.01865552  0.08863156     0.04000
C699        C  0.99299166  0.03320836  0.06716613     0.18100
C700        C  0.01713528  0.03350563  0.06578319    -0.19900
C701        C  0.98035507  0.04687001  0.04673870    -0.21100
C702        C  0.95645194  0.04564605  0.04647873    -0.19700
C703        C  0.94464391  0.03033321  0.06632076     0.19500
C704        C  0.95689138  0.01677946  0.08788664     0.01600
C705        C  0.94398688  0.00127288  0.10707337    -0.14400
C706        C  0.92004331  0.99885610  0.10442699    -0.12100
C707        C  0.90820491  0.01187296  0.08277268     0.01200
C708        C  0.92062228  0.02802374  0.06420493    -0.24300
H709        H  0.02923042  0.99621352  0.12353934     0.09200
H710        H  0.98786761  0.99545720  0.12686751     0.12800
H711        H  0.02571241  0.04410504  0.04890999     0.11500
H712        H  0.98903657  0.05826904  0.03057178     0.12700
H713        H  0.94715989  0.05616656  0.03013129     0.11700
H714        H  0.95193969  0.99025300  0.12390309     0.08800
H715        H  0.91087388  0.98617373  0.11898985     0.12000
H716        H  0.91157752  0.03879979  0.04784087     0.13900
C717        C  0.83499046  0.00765972  0.02590581    -0.01600
C718        C  0.81979874  0.02705481  0.01563367    -0.09600
C719        C  0.81219831  0.02645421  0.98765541    -0.18400
C720        C  0.81955764  0.00640547  0.96881449     0.04000
C721        C  0.83416601  0.98625503  0.97956648     0.18100
C722        C  0.84148688  0.98696635  0.00771974    -0.19900
C723        C  0.84180407  0.96571149  0.96205408    -0.21100
C724        C  0.83552224  0.96493561  0.93380422    -0.19700
C725        C  0.82143191  0.98466979  0.92241138     0.19500
C726        C  0.81312861  0.00565896  0.93970756     0.01600
C727        C  0.79894933  0.02503154  0.92699510    -0.14400
C728        C  0.79308125  0.02337268  0.89845152    -0.12100
C729        C  0.80112773  0.00246998  0.88158050     0.01200
C730        C  0.81549664  0.98334837  0.89375766    -0.24300
H731        H  0.81368426  0.04308248  0.02868122     0.09200
H732        H  0.80073410  0.04214673  0.98138150     0.12800
H733        H  0.85296519  0.97165178  0.01544441     0.11500
H734        H  0.85289284  0.95024366  0.97020527     0.12700
H735        H  0.84182264  0.94882859  0.92073578     0.11700
H736        H  0.79208136  0.04169332  0.93848945     0.08800
H737        H  0.78214354  0.03860969  0.88964219     0.12000
H738        H  0.82175644  0.96692916  0.88117329     0.13900
C739        C  0.84641659  0.96191490  0.11935969    -0.01600
C740        C  0.84411874  0.93525017  0.11153151    -0.09600
C741        C  0.84116089  0.91567590  0.13205061    -0.18400
C742        C  0.84046502  0.92236517  0.16109563     0.04000
C743        C  0.84211503  0.94963057  0.16857709     0.18100
C744        C  0.84490115  0.96893047  0.14782144    -0.19900
C745        C  0.84135480  0.95761879  0.19681418    -0.21100
C746        C  0.83958563  0.93902951  0.21807246    -0.19700
C747        C  0.83843958  0.91203471  0.21157454     0.19500
C748        C  0.83855987  0.90316352  0.18305987     0.01600
C749        C  0.83707748  0.87552835  0.17799877    -0.14400
C750        C  0.83584943  0.85758632  0.20042593    -0.12100
C751        C  0.83602744  0.86663564  0.22843240     0.01200
C752        C  0.83726022  0.89389834  0.23369147    -0.24300
H753        H  0.84515492  0.92943745  0.08953849     0.09200
H754        H  0.83980917  0.89553753  0.12459432     0.12800
H755        H  0.84588718  0.98962326  0.15394996     0.11500
H756        H  0.84247255  0.97839845  0.20253705     0.12700
H757        H  0.83932299  0.94582383  0.23980627     0.11700
H758        H  0.83684679  0.86720746  0.15701845     0.08800
H759        H  0.83459860  0.83660033  0.19580449     0.12000
H760        H  0.83725681  0.90120964  0.25524771     0.13900
C761        C  0.90830256  0.73232388  0.55043696    -0.01600
C762        C  0.91878351  0.70757960  0.54681980    -0.09600
C763        C  0.94271054  0.70553520  0.54342654    -0.18400
C764        C  0.95689648  0.72840057  0.54348903     0.04000
C765        C  0.94586270  0.75348850  0.54457019     0.18100
C766        C  0.92189289  0.75518282  0.54763513    -0.19900
C767        C  0.95885152  0.77684387  0.54380883    -0.21100
C768        C  0.98276148  0.77588073  0.54366036    -0.19700
C769        C  0.99422822  0.75154500  0.54441691     0.19500
C770        C  0.98155159  0.72741481  0.54357192     0.01600
C771        C  0.99414962  0.70346767  0.54401593    -0.14400
C772        C  0.01814913  0.70357628  0.54687159    -0.12100
C773        C  0.03041177  0.72738304  0.54954699     0.01200
C774        C  0.01831743  0.75129939  0.54709006    -0.24300
H775        H  0.90872726  0.68963589  0.54773386     0.09200
H776        H  0.94963459  0.68580374  0.54159795     0.12800
H777        H  0.91387752  0.77454549  0.54882352     0.11500
H778        H  0.95047052  0.79602500  0.54423304     0.12700
H779        H  0.99234557  0.79433363  0.54392498     0.11700
H780        H  0.98592511  0.68433545  0.54294489     0.08800
H781        H  0.02687774  0.68481275  0.54786429     0.12000
H782        H  0.02760596  0.76993341  0.54782927     0.13900
C783        C  0.79452430  0.87679108  0.69257146    -0.01600
C784        C  0.81845152  0.87546298  0.68869025    -0.09600
C785        C  0.82822317  0.85651985  0.67087358    -0.18400
C786        C  0.81433429  0.83800567  0.65615216     0.04000
C787        C  0.79011082  0.83896021  0.66052812     0.18100
C788        C  0.78044829  0.85838188  0.67835041    -0.19900
C789        C  0.77572150  0.82035797  0.64728117    -0.21100
C790        C  0.78492801  0.80063223  0.63001339    -0.19700
C791        C  0.80870805  0.79937000  0.62501743     0.19500
C792        C  0.82365263  0.81837599  0.63757866     0.01600
C793        C  0.84728397  0.81711247  0.63077065    -0.14400
C794        C  0.85589450  0.79737598  0.61307945    -0.12100
C795        C  0.84139737  0.77774823  0.60143186     0.01200
C796        C  0.81765357  0.77926236  0.60745687    -0.24300
H797        H  0.82986173  0.88928283  0.69925683     0.09200
H798        H  0.84675588  0.85673896  0.66940035     0.12800
H799        H  0.76194481  0.85882085  0.68143050     0.11500
H800        H  0.75722835  0.82087975  0.65054988     0.12700
H801        H  0.77334263  0.78635555  0.62036644     0.11700
H802        H  0.85965222  0.83135991  0.63846182     0.08800
H803        H  0.87408596  0.79823479  0.60893732     0.12000
H804        H  0.80607822  0.76466050  0.59832516     0.13900
C805        C  0.83852674  0.73293464  0.50587072    -0.01600
C806        C  0.81620231  0.74080144  0.49836518    -0.09600
C807        C  0.81003808  0.74375442  0.47011852    -0.18400
C808        C  0.82629157  0.73934749  0.44841392     0.04000
C809        C  0.84802607  0.72842057  0.45599350     0.18100
C810        C  0.85391177  0.72520696  0.48457596    -0.19900
C811        C  0.86429819  0.72248094  0.43511101    -0.21100
C812        C  0.86020111  0.72919914  0.40710709    -0.19700
C813        C  0.83995896  0.74249568  0.39949538     0.19500
C814        C  0.82239583  0.74711345  0.41986700     0.01600
C815        C  0.80265258  0.76153104  0.41136191    -0.14400
C816        C  0.80151562  0.77304963  0.38467683    -0.12100
C817        C  0.81936829  0.76943998  0.36529615     0.01200
C818        C  0.83796820  0.75306006  0.37222020    -0.24300
H819        H  0.80363343  0.74560794  0.51448141     0.09200
H820        H  0.79269511  0.75035535  0.46602724     0.12800
H821        H  0.87112779  0.71868601  0.49013713     0.11500
H822        H  0.88070441  0.71361582  0.44064051     0.12700
H823        H  0.87353790  0.72536370  0.39161252     0.11700
H824        H  0.78851391  0.76576011  0.42538752     0.08800
H825        H  0.78700982  0.78565374  0.37949225     0.12000
H826        H  0.85194304  0.75060692  0.35722947     0.13900
C827        C  0.91967132  0.22956876  0.19537611    -0.01600
C828        C  0.92959156  0.22328348  0.22145121    -0.09600
C829        C  0.95354567  0.22105772  0.22432026    -0.18400
C830        C  0.96836205  0.22532261  0.20104765     0.04000
C831        C  0.95802148  0.22986124  0.17427436     0.18100
C832        C  0.93400767  0.23159150  0.17167060    -0.19900
C833        C  0.97168997  0.23370136  0.15033830    -0.21100
C834        C  0.99552076  0.23464540  0.15262189    -0.19700
C835        C  0.00622051  0.23180249  0.17889388     0.19500
C836        C  0.99295353  0.22635017  0.20343146     0.01600
C837        C  0.00489686  0.22336692  0.22934926    -0.14400
C838        C  0.02880139  0.22718220  0.23097003    -0.12100
C839        C  0.04136674  0.23408842  0.20694642     0.01200
C840        C  0.03010232  0.23547708  0.18087750    -0.24300
H841        H  0.91896252  0.22117144  0.24001305     0.09200
H842        H  0.95997107  0.21678347  0.24516186     0.12800
H843        H  0.92650678  0.23523733  0.15108175     0.11500
H844        H  0.96386883  0.23684053  0.12982804     0.12700
H845        H  0.00561885  0.23847124  0.13382984     0.11700
H846        H  0.99618158  0.21883481  0.24882019     0.08800
H847        H  0.03729356  0.22580209  0.25124213     0.12000
H848        H  0.03996770  0.24023267  0.16211554     0.13900
C849        C  0.85610608  0.18022544  0.18282557    -0.01600
C850        C  0.87420760  0.16255035  0.18771212    -0.09600
C851        C  0.87229558  0.13605303  0.17968434    -0.18400
C852        C  0.85222128  0.12652209  0.16597943     0.04000
C853        C  0.83326932  0.14413440  0.16300881     0.18100
C854        C  0.83530049  0.17063048  0.17166192    -0.19900
C855        C  0.81287445  0.13561663  0.14998379    -0.21100
C856        C  0.81146510  0.11050490  0.13798055    -0.19700
C857        C  0.83045097  0.09342888  0.13866363     0.19500
C858        C  0.85080288  0.10079219  0.15354147     0.01600
C859        C  0.86940497  0.08275126  0.15369878    -0.14400
C860        C  0.86866300  0.05965416  0.13756518    -0.12100
C861        C  0.84916715  0.05331779  0.12137762     0.01200
C862        C  0.82968640  0.06967815  0.12318534    -0.24300
H863        H  0.89046344  0.16945615  0.19630510     0.09200
H864        H  0.88721175  0.12387367  0.18346951     0.12800
H865        H  0.82099846  0.18412710  0.16849290     0.11500
H866        H  0.79824560  0.14884117  0.14804664     0.12700
H867        H  0.79577802  0.10485698  0.12701845     0.11700
H868        H  0.88524246  0.08645256  0.16495605     0.08800
H869        H  0.88406994  0.04762680  0.13664849     0.12000
H870        H  0.81422019  0.06457221  0.11148139     0.13900
C871        C  0.79591056  0.36841697  0.06140357    -0.01600
C872        C  0.78210908  0.34964432  0.07509961    -0.09600
C873        C  0.79177591  0.33108981  0.09326216    -0.18400
C874        C  0.81576814  0.33065532  0.09846949     0.04000
C875        C  0.82976191  0.34958137  0.08441091     0.18100
C876        C  0.81979014  0.36817695  0.06619918    -0.19900
C877        C  0.85365526  0.34984851  0.08856745    -0.21100
C878        C  0.86400898  0.33158753  0.10636123    -0.19700
C879        C  0.85070386  0.31272757  0.12056927     0.19500
C880        C  0.82637531  0.31211247  0.11702466     0.01600
C881        C  0.81372518  0.29316793  0.13247428    -0.14400
C882        C  0.82480843  0.27545615  0.15035945    -0.12100
C883        C  0.84889652  0.27549547  0.15330801     0.01200
C884        C  0.86166689  0.29459799  0.13847688    -0.24300
H885        H  0.76364662  0.34911871  0.07195152     0.09200
H886        H  0.77994446  0.31730370  0.10276328     0.12800
H887        H  0.83081349  0.38239207  0.05574895     0.11500
H888        H  0.86442940  0.36423423  0.07791263     0.12700
H889        H  0.88257248  0.33225592  0.10906028     0.11700
H890        H  0.79521376  0.29161967  0.13148990     0.08800
H891        H  0.81440808  0.26144414  0.16206190     0.12000
H892        H  0.88009564  0.29618600  0.14101197     0.13900
C893        C  0.89499283  0.50184078  0.68744643    -0.01600
C894        C  0.90568540  0.48277099  0.70431348    -0.09600
C895        C  0.92949841  0.47915660  0.70329733    -0.18400
C896        C  0.94343902  0.49491077  0.68551287     0.04000
C897        C  0.93230364  0.51369184  0.66783235     0.18100
C898        C  0.90828994  0.51681412  0.66884219    -0.19900
C899        C  0.94524128  0.52980078  0.64983796    -0.21100
C900        C  0.96916394  0.52845123  0.64980557    -0.19700
C901        C  0.98069230  0.51098873  0.66780054     0.19500
C902        C  0.96801931  0.49350568  0.68545451     0.01600
C903        C  0.98056903  0.47619281  0.70312457    -0.14400
C904        C  0.00454435  0.47763870  0.70468370    -0.12100
C905        C  0.01677918  0.49590489  0.68834623     0.01200
C906        C  0.00485959  0.51174126  0.66914418    -0.24300
H907        H  0.89552761  0.47054659  0.71836401     0.09200
H908        H  0.93644945  0.46419125  0.71702150     0.12800
H909        H  0.90007225  0.53167664  0.65593618     0.11500
H910        H  0.93681931  0.54399616  0.63616770     0.12700
H911        H  0.97873741  0.54167179  0.63615812     0.11700
H912        H  0.97239640  0.46183086  0.71657641     0.08800
H913        H  0.01358714  0.46466712  0.71910765     0.12000
H914        H  0.01425842  0.52579603  0.65642201     0.13900
C915        C  0.83769809  0.55254354  0.64631391    -0.01600
C916        C  0.85656917  0.55744324  0.62858215    -0.09600
C917        C  0.85809694  0.58077153  0.61307602    -0.18400
C918        C  0.84078025  0.60032527  0.61497391     0.04000
C919        C  0.82061420  0.59422634  0.63066836     0.18100
C920        C  0.81913448  0.57041809  0.64581157    -0.19900
C921        C  0.80249984  0.61247265  0.63225786    -0.21100
C922        C  0.80464041  0.63739972  0.62016118    -0.19700
C923        C  0.82499676  0.64469486  0.60636246     0.19500
C924        C  0.84314004  0.62604457  0.60289119     0.01600
C925        C  0.86333571  0.63444416  0.58879173    -0.14400
C926        C  0.86575605  0.66053103  0.57969455    -0.12100
C927        C  0.84828226  0.67908521  0.58424055     0.01200
C928        C  0.82767905  0.67086532  0.59696089    -0.24300
H929        H  0.87090767  0.54396053  0.62733839     0.09200
H930        H  0.87340888  0.58321441  0.60049667     0.12800
H931        H  0.80377118  0.56638352  0.65804777     0.11500
H932        H  0.78688505  0.60777887  0.64376614     0.12700
H933        H  0.79060606  0.65139850  0.62251398     0.11700
H934        H  0.87789025  0.62162492  0.58524476     0.08800
H935        H  0.88179521  0.66637688  0.57007235     0.12000
H936        H  0.81386985  0.68504371  0.60008391     0.13900
C937        C  0.82105894  0.50646173  0.74074984    -0.01600
C938        C  0.80804624  0.52741173  0.75208260    -0.09600
C939        C  0.80176348  0.52758707  0.78052264    -0.18400
C940        C  0.80838334  0.50681858  0.79872804     0.04000
C941        C  0.82022586  0.48488192  0.78677661     0.18100
C942        C  0.82617942  0.48482104  0.75818562    -0.19900
C943        C  0.82680392  0.46346610  0.80358123    -0.21100
C944        C  0.82238650  0.46364953  0.83233757    -0.19700
C945        C  0.81132905  0.48527375  0.84493187     0.19500
C946        C  0.80399838  0.50713476  0.82836002     0.01600
C947        C  0.79284796  0.52841579  0.84227534    -0.14400
C948        C  0.78869505  0.52763005  0.87127105    -0.12100
C949        C  0.79578886  0.50592658  0.88732634     0.01200
C950        C  0.80734958  0.48497322  0.87406270    -0.24300
H951        H  0.80314234  0.54433380  0.73968726     0.09200
H952        H  0.79214177  0.54455325  0.78770699     0.12800
H953        H  0.83602013  0.46836378  0.74967389     0.11500
H954        H  0.83571836  0.44661181  0.79448790     0.12700
H955        H  0.82784284  0.44685346  0.84485978     0.11700
H956        H  0.78697625  0.54583602  0.83138402     0.08800
H957        H  0.77970737  0.54400733  0.88117734     0.12000
H958        H  0.81252639  0.46782767  0.88620183     0.13900
C959        C  0.83903675  0.28044363  0.39740346    -0.01600
C960        C  0.85570889  0.26131747  0.39117493    -0.09600
C961        C  0.85873313  0.25236041  0.36349611    -0.18400
C962        C  0.84479206  0.26211946  0.34131701     0.04000
C963        C  0.82684347  0.28018298  0.34835265     0.18100
C964        C  0.82442604  0.28949643  0.37608859    -0.19900
C965        C  0.81173737  0.28934833  0.32756728    -0.21100
C966        C  0.81445754  0.28157807  0.29965679    -0.19700
C967        C  0.83280565  0.26517427  0.29176556     0.19500
C968        C  0.84824878  0.25513461  0.31239459     0.01600
C969        C  0.86694382  0.23944415  0.30297899    -0.14400
C970        C  0.87067295  0.23499424  0.27420800    -0.12100
C971        C  0.85573235  0.24555994  0.25390479     0.01200
C972        C  0.83625188  0.25964221  0.26311462    -0.24300
H973        H  0.86714476  0.25416814  0.40756612     0.09200
H974        H  0.87219732  0.23800483  0.36010333     0.12800
H975        H  0.81135508  0.30413955  0.38109383     0.11500
H976        H  0.79785106  0.30282650  0.33289007     0.12700
H977        H  0.80260744  0.28923601  0.28397421     0.11700
H978        H  0.87952112  0.23123462  0.31722777     0.08800
H979        H  0.88580774  0.22398288  0.26805321     0.12000
H980        H  0.82387479  0.26703794  0.24794760     0.13900
C981        C  0.84550152  0.35309275  0.55154468    -0.01600
C982        C  0.82663681  0.35324723  0.56981778    -0.09600
C983        C  0.82558010  0.37161991  0.59189438    -0.18400
C984        C  0.84353946  0.39026550  0.59608469     0.04000
C985        C  0.86362045  0.38799407  0.57901829     0.18100
C986        C  0.86428700  0.36970389  0.55679596    -0.19900
C987        C  0.88245302  0.40485455  0.58328272    -0.21100
C988        C  0.88137517  0.42489638  0.60331742    -0.19700
C989        C  0.86117937  0.42899299  0.61884761     0.19500
C990        C  0.84199704  0.41168940  0.61569555     0.01600
C991        C  0.82175862  0.41744514  0.63122152    -0.14400
C992        C  0.82044508  0.43999784  0.64833950    -0.12100
C993        C  0.83933436  0.45716226  0.65092767     0.01200
C994        C  0.85986691  0.45092565  0.63684075    -0.24300
H995        H  0.81204049  0.34030388  0.56591585     0.09200
H996        H  0.81028846  0.37122552  0.60478591     0.06000
H997        H  0.87899052  0.36922222  0.54264829     0.11500
H998        H  0.89792183  0.40289124  0.57061940     0.12700
H999        H  0.89608757  0.43798016  0.60582526     0.11700
H1000       H  0.80640532  0.40546621  0.62979983     0.08800
H1001       H  0.80440363  0.44426109  0.65910328     0.12000
H1002       H  0.87502990  0.46320801  0.63963357     0.13900
C1003       C  0.11258107  0.25738609  0.41647490    -0.01600
C1004       C  0.13221338  0.26136716  0.40004572    -0.09600
C1005       C  0.13266235  0.25338018  0.37187898    -0.18400
C1006       C  0.11295329  0.24201418  0.35895054     0.04000
C1007       C  0.09351795  0.23649658  0.37627846     0.18100
C1008       C  0.09366158  0.24379576  0.40500065    -0.19900
C1009       C  0.07354415  0.22545391  0.36438843    -0.21100
C1010       C  0.07188186  0.22143129  0.33534829    -0.19700
C1011       C  0.09018608  0.22825194  0.31752295     0.19500
C1012       C  0.11128281  0.23772262  0.32919965     0.01600
C1013       C  0.12936304  0.24397882  0.31040177    -0.14400
C1014       C  0.12592971  0.24323748  0.28133555    -0.12100
C1015       C  0.10455550  0.23595197  0.26987686     0.01200
C1016       C  0.08712054  0.22711958  0.28802539    -0.24300
H1017       H  0.14692660  0.27189120  0.40872170     0.09200
H1018       H  0.14826923  0.25772421  0.36051761     0.12800
H1019       H  0.07830798  0.24106492  0.41772933     0.11500
H1020       H  0.05874582  0.22094438  0.37748083     0.12700
H1021       H  0.05585004  0.21387820  0.32667461     0.11700
H1022       H  0.14615069  0.25038057  0.31738768     0.08800
H1023       H  0.13994388  0.24928709  0.26768799     0.12000
H1024       H  0.07063505  0.22114338  0.27935329     0.13900
C1025       C  0.09001283  0.34757851  0.55755406    -0.01600
C1026       C  0.10482219  0.34808035  0.58082007    -0.09600
C1027       C  0.10265882  0.36793825  0.60130452    -0.18400
C1028       C  0.08538973  0.38764868  0.59897834     0.04000
C1029       C  0.06929111  0.38544810  0.57642696     0.18100
C1030       C  0.07200259  0.36583110  0.55576975    -0.19900
C1031       C  0.05091685  0.40322765  0.57419708    -0.21100
C1032       C  0.04833988  0.42354286  0.59374008    -0.19700
C1033       C  0.06461138  0.42717658  0.61525230     0.19500
C1034       C  0.08358587  0.40958170  0.61793656     0.01600
C1035       C  0.10031054  0.41528321  0.63880474    -0.14400
C1036       C  0.09806877  0.43733547  0.65647696    -0.12100
C1037       C  0.07881483  0.45409547  0.65452617     0.01200
C1038       C  0.06209339  0.44859505  0.63387615    -0.24300
H1039       H  0.11877793  0.33390467  0.58241472     0.09200
H1040       H  0.11479556  0.36750027  0.61855933     0.12800
H1041       H  0.06038208  0.36508675  0.53780126     0.11500
H1042       H  0.03846171  0.40141821  0.55720887     0.12700
H1043       H  0.03387276  0.43696396  0.59152974     0.11700
H1044       H  0.11566172  0.40350655  0.64142116     0.08800
H1045       H  0.11168515  0.44125293  0.67155473     0.12000
H1046       H  0.04676279  0.46065969  0.63224112     0.13900
C1047       C  0.03319428  0.29993143  0.47391154    -0.01600
C1048       C  0.02008721  0.27894924  0.48453194    -0.09600
C1049       C  0.99614811  0.27968483  0.48366945    -0.18400
C1050       C  0.98442581  0.30173294  0.47232253     0.04000
C1051       C  0.99775445  0.32231778  0.46003547     0.18100
C1052       C  0.02194927  0.32128792  0.46098607    -0.19900
C1053       C  0.98683607  0.34394080  0.44732158    -0.21100
C1054       C  0.96288557  0.34566102  0.44681972    -0.19700
C1055       C  0.94934302  0.32611106  0.45960344     0.19500
C1056       C  0.95996839  0.30403794  0.47283478     0.01600
C1057       C  0.94569745  0.28547861  0.48664561    -0.14400
C1058       C  0.92187011  0.28827727  0.48661480    -0.12100
C1059       C  0.91136690  0.30961241  0.47294734     0.01200
C1060       C  0.92521431  0.32859068  0.45955559    -0.24300
H1061       H  0.02835451  0.26194548  0.49405617     0.09200
H1062       H  0.98739268  0.26266190  0.49212019     0.12800
H1063       H  0.03198000  0.33748991  0.45237575     0.11500
H1064       H  0.99688006  0.35962446  0.43773016     0.12700
H1065       H  0.95491626  0.36259280  0.43675991     0.11700
H1066       H  0.95234841  0.26877428  0.49810504     0.08800
H1067       H  0.91163041  0.27357326  0.49752663     0.12000
H1068       H  0.91725329  0.34539907  0.44923810     0.13900
C1069       C  0.59877482  0.28565383  0.24789520    -0.01600
C1070       C  0.61240475  0.26516698  0.25910130    -0.09600
C1071       C  0.62022517  0.26605668  0.28692466    -0.18400
C1072       C  0.61487570  0.28759975  0.30478590     0.04000
C1073       C  0.60273073  0.30930022  0.29291710     0.18100
C1074       C  0.59488516  0.30814928  0.26484447    -0.19900
C1075       C  0.59805459  0.33177896  0.30932173    -0.21100
C1076       C  0.60481281  0.33293373  0.33747577    -0.19700
C1077       C  0.61605777  0.31145865  0.35003568     0.19500
C1078       C  0.62118450  0.28840088  0.33393011     0.01600
C1079       C  0.63212235  0.26703604  0.34781878    -0.14400
C1080       C  0.63852041  0.26897744  0.37615874    -0.12100
C1081       C  0.63397044  0.29199732  0.39168651     0.01200
C1082       C  0.62238655  0.31301068  0.37860463    -0.24300
H1083       H  0.61699544  0.24785270  0.24708249     0.09200
H1084       H  0.63037242  0.24943369  0.29383761     0.12800
H1085       H  0.58486408  0.32443277  0.25640065     0.11500
H1086       H  0.58900748  0.34853836  0.30035517     0.12700
H1087       H  0.60096361  0.35063280  0.34960702     0.11700
H1088       H  0.63597876  0.24855639  0.33741964     0.08800
H1089       H  0.64723066  0.25240630  0.38595484     0.12000
H1090       H  0.61895420  0.33103507  0.39035960     0.13900
C1091       C  0.59508448  0.52422799  0.65786372    -0.01600
C1092       C  0.58128801  0.50438798  0.64553475    -0.09600
C1093       C  0.59089488  0.48471357  0.62854970    -0.18400
C1094       C  0.61481417  0.48395238  0.62307470     0.04000
C1095       C  0.62875948  0.50438381  0.63471985     0.18100
C1096       C  0.61889192  0.52402718  0.65201425    -0.19900
C1097       C  0.65246462  0.50503720  0.62906593    -0.21100
C1098       C  0.66257562  0.48586632  0.61187151    -0.19700
C1099       C  0.64931187  0.46527151  0.60035414     0.19500
C1100       C  0.62530563  0.46379757  0.60622612     0.01600
C1101       C  0.61283798  0.44207401  0.59515745    -0.14400
C1102       C  0.62348680  0.42325548  0.57807666    -0.12100
C1103       C  0.64694124  0.42524031  0.57123252     0.01200
C1104       C  0.65985804  0.44617161  0.58288836    -0.24300
H1105       H  0.56297913  0.50325018  0.64893899     0.09200
H1106       H  0.57898371  0.47044339  0.61988840     0.12800
H1107       H  0.62982790  0.53921169  0.66125558     0.11500
H1108       H  0.66323258  0.52060801  0.63781633     0.12700
H1109       H  0.68091534  0.48709569  0.60765659     0.11700
H1110       H  0.59481668  0.43885095  0.59943159     0.08800
H1111       H  0.61303511  0.40706803  0.57025450     0.12000
H1112       H  0.67806398  0.44790182  0.57814976     0.13900
C1113       C  0.57502802  0.23137553  0.16167161    -0.01600
C1114       C  0.57105964  0.20808677  0.17680304    -0.09600
C1115       C  0.56871357  0.18386193  0.16305698    -0.18400
C1116       C  0.57041456  0.18193366  0.13337107     0.04000
C1117       C  0.57379102  0.20570453  0.11787207     0.18100
C1118       C  0.57580762  0.23022999  0.13210336    -0.19900
C1119       C  0.57552457  0.20468822  0.08838335    -0.21100
C1120       C  0.57455820  0.18050841  0.07404167    -0.19700
C1121       C  0.57175394  0.15670908  0.08879780     0.19500
C1122       C  0.56931450  0.15719612  0.11866873     0.01600
C1123       C  0.56624682  0.13280420  0.13266743    -0.14400
C1124       C  0.56641323  0.10897001  0.11789390    -0.12100
C1125       C  0.56966599  0.10830049  0.08862131     0.01200
C1126       C  0.57178515  0.13234173  0.07402778    -0.24300
H1127       H  0.56964571  0.20860712  0.19960256     0.09200
H1128       H  0.56581390  0.16702602  0.17646176     0.12800
H1129       H  0.57865034  0.24823991  0.12025589     0.11500
H1130       H  0.57797884  0.22268666  0.07635262     0.12700
H1131       H  0.57629199  0.18039862  0.05126799     0.11700
H1132       H  0.56379590  0.13128794  0.15511633     0.08800
H1133       H  0.56387725  0.09084240  0.12963967     0.12000
H1134       H  0.57418765  0.13208009  0.05134440     0.13900
C1135       C  0.58750318  0.01099049  0.08623337    -0.01600
C1136       C  0.60790757  0.99771713  0.07857349    -0.09600
C1137       C  0.61700248  0.97759958  0.09539225    -0.18400
C1138       C  0.60617413  0.97003361  0.12080946     0.04000
C1139       C  0.58530666  0.98300861  0.12824706     0.18100
C1140       C  0.57639498  0.00326216  0.11122126    -0.19900
C1141       C  0.57363651  0.97610021  0.15297498    -0.21100
C1142       C  0.58256123  0.95699200  0.17093335    -0.19700
C1143       C  0.60349739  0.94450433  0.16475592     0.19500
C1144       C  0.61555468  0.95062247  0.13949037     0.01600
C1145       C  0.63674284  0.93754333  0.13448935    -0.14400
C1146       C  0.64585403  0.91985895  0.15416602    -0.12100
C1147       C  0.63410575  0.91431238  0.17928504     0.01200
C1148       C  0.61270575  0.92638913  0.18413469    -0.24300
H1149       H  0.61768982  0.00313306  0.06015941     0.09200
H1150       H  0.63278470  0.96866263  0.08810001     0.12800
H1151       H  0.56083513  0.01350123  0.11772396     0.11500
H1152       H  0.55761079  0.98577789  0.15865154     0.12700
H1153       H  0.57323044  0.95232253  0.19009289     0.11700
H1154       H  0.64689661  0.94083664  0.11580281     0.08800
H1155       H  0.66222669  0.91050689  0.14959705     0.12000
H1156       H  0.60344992  0.92241733  0.20351074     0.13900
C1157       C  0.58907175  0.74746215  0.61871129    -0.01600
C1158       C  0.60942354  0.73246626  0.61847364    -0.09600
C1159       C  0.61110870  0.70899880  0.63375428    -0.18400
C1160       C  0.59229659  0.69955508  0.64978365     0.04000
C1161       C  0.57248125  0.71595941  0.65200488     0.18100
C1162       C  0.57119710  0.73976771  0.63684281    -0.19900
C1163       C  0.55358319  0.70787374  0.66821428    -0.21100
C1164       C  0.55336548  0.68306828  0.68087580    -0.19700
C1165       C  0.57199057  0.66572004  0.67749504     0.19500
C1166       C  0.59199175  0.67397114  0.66254405     0.01600
C1167       C  0.61027953  0.65566284  0.65966728    -0.14400
C1168       C  0.60800258  0.62970161  0.66919727    -0.12100
C1169       C  0.58770617  0.62119296  0.68236272     0.01200
C1170       C  0.57024297  0.63967142  0.68768846    -0.24300
H1171       H  0.62408111  0.73856069  0.60593644     0.09200
H1172       H  0.62715558  0.69840777  0.63195567     0.12800
H1173       H  0.55562756  0.75136652  0.63809925     0.11500
H1174       H  0.53852852  0.72044493  0.67030917     0.12700
H1175       H  0.53815666  0.67702389  0.69248145     0.11700
H1176       H  0.62622162  0.66041757  0.64920343     0.08800
H1177       H  0.62204562  0.61596410  0.66559339     0.12000
H1178       H  0.55464801  0.63341555  0.69814678     0.13900
C1179       C  0.60087239  0.79658236  0.52516833    -0.01600
C1180       C  0.61632164  0.77781859  0.51413891    -0.09600
C1181       C  0.62401739  0.77948929  0.48636157    -0.18400
C1182       C  0.61649587  0.80001911  0.46841230     0.04000
C1183       C  0.60206588  0.81993778  0.48006140     0.18100
C1184       C  0.59454525  0.81810169  0.50808306    -0.19900
C1185       C  0.59474430  0.84122526  0.46348682    -0.21100
C1186       C  0.60084855  0.84267372  0.43518577    -0.19700
C1187       C  0.61425801  0.82276106  0.42277728     0.19500
C1188       C  0.62246627  0.80126256  0.43926268     0.01600
C1189       C  0.63577075  0.78156733  0.42566139    -0.14400
C1190       C  0.64065678  0.78314958  0.39696034    -0.12100
C1191       C  0.63259671  0.80437180  0.38078049     0.01200
C1192       C  0.61936919  0.82412634  0.39387576    -0.24300
H1193       H  0.62262949  0.76145399  0.52641733     0.09200
H1194       H  0.63572216  0.76420336  0.47956546     0.12800
H1195       H  0.58305118  0.83311796  0.51650014     0.11500
H1196       H  0.58393528  0.85665090  0.47236087     0.12700
H1197       H  0.59469259  0.85923602  0.42279833     0.11700
H1198       H  0.64245471  0.76448190  0.43644899     0.08800
H1199       H  0.65072347  0.76745645  0.38742333     0.12000
H1200       H  0.61321645  0.84082297  0.38173251     0.13900
C1201       C  0.60845563  0.04169896  0.85538145    -0.01600
C1202       C  0.58842082  0.05593294  0.86168725    -0.09600
C1203       C  0.58456587  0.06548646  0.88899392    -0.18400
C1204       C  0.60084995  0.06106365  0.91073383     0.04000
C1205       C  0.62209444  0.04875119  0.90329896     0.18100
C1206       C  0.62556109  0.03894408  0.87590220    -0.19900
C1207       C  0.63922250  0.04486237  0.92363824    -0.21100
C1208       C  0.63513577  0.05121880  0.95169916    -0.19700
C1209       C  0.61363717  0.06100717  0.96011157     0.19500
C1210       C  0.59634914  0.06680168  0.93977867     0.01600
C1211       C  0.57479223  0.07617374  0.94972231    -0.14400
C1212       C  0.56985569  0.07682892  0.97863922    -0.12100
C1213       C  0.58643219  0.06892231  0.99837406     0.01200
C1214       C  0.60877656  0.06302668  0.98896261    -0.24300
H1215       H  0.57497966  0.05808293  0.84594297     0.09200
H1216       H  0.56838919  0.07541226  0.89265486     0.12800
H1217       H  0.64110124  0.02794946  0.87086868     0.11500
H1218       H  0.65558790  0.03595010  0.91798081     0.12700
H1219       H  0.64843446  0.04702662  0.96714854     0.11700
H1220       H  0.56091984  0.08147967  0.93568750     0.08800
H1221       H  0.55252499  0.08173797  0.98532657     0.12000
H1222       H  0.62200593  0.05785717  0.00417188     0.13900
C1223       C  0.59486558  0.94666082  0.71689671    -0.01600
C1224       C  0.61032861  0.94643215  0.69435425    -0.09600
C1225       C  0.60908112  0.92645036  0.67396592    -0.18400
C1226       C  0.59202336  0.90641502  0.67562238     0.04000
C1227       C  0.57524058  0.90830379  0.69736756     0.18100
C1228       C  0.57712825  0.92798118  0.71808784    -0.19900
C1229       C  0.55691693  0.89030640  0.69857260    -0.21100
C1230       C  0.55496364  0.87022978  0.67861152    -0.19700
C1231       C  0.57192125  0.86694262  0.65791363     0.19500
C1232       C  0.59099900  0.88457993  0.65656669     0.01600
C1233       C  0.60862315  0.87905877  0.63689927    -0.14400
C1234       C  0.60702803  0.85729418  0.61883607    -0.12100
C1235       C  0.58758404  0.84070378  0.61918632     0.01200
C1236       C  0.57004989  0.84583033  0.63879204    -0.24300
H1237       H  0.62401985  0.96102340  0.69322473     0.09200
H1238       H  0.62161190  0.92718952  0.65719570     0.12800
H1239       H  0.56496999  0.92860463  0.73547440     0.11500
H1240       H  0.54394060  0.89187589  0.71494329     0.12700
H1241       H  0.54045248  0.85672490  0.67986886     0.11700
H1242       H  0.62419331  0.89068609  0.63561745     0.08800
H1243       H  0.62130603  0.85342843  0.60473929     0.12000
H1244       H  0.55469083  0.83365192  0.63922106     0.13900
C1245       C  0.53513091  0.99336361  0.79933721    -0.01600
C1246       C  0.52551727  0.97240640  0.81461376    -0.09600
C1247       C  0.50174479  0.97030363  0.81788660    -0.18400
C1248       C  0.48675441  0.98916598  0.80577143     0.04000
C1249       C  0.49668601  0.01073272  0.79083696     0.18100
C1250       C  0.52064394  0.01272694  0.78795562    -0.19900
C1251       C  0.48265053  0.02977238  0.77811376    -0.21100
C1252       C  0.45883692  0.02725283  0.77883977    -0.19700
C1253       C  0.44856436  0.00582544  0.79261732     0.19500
C1254       C  0.46229902  0.98688550  0.80701541     0.01600
C1255       C  0.45093247  0.96614051  0.82139927    -0.14400
C1256       C  0.42704568  0.96344628  0.82004110    -0.12100
C1257       C  0.41377017  0.98136642  0.80452012     0.01200
C1258       C  0.42459291  0.00288946  0.79147644    -0.24300
H1259       H  0.53637813  0.95717972  0.82364588     0.09200
H1260       H  0.49569020  0.95332858  0.82942433     0.12800
H1261       H  0.52797386  0.02909707  0.77621742     0.11500
H1262       H  0.49014706  0.04634350  0.76688225     0.12700
H1263       H  0.44839406  0.04191759  0.76813529     0.11700
H1264       H  0.45996606  0.95148148  0.83360731     0.08800
H1265       H  0.41901091  0.94691963  0.83074740     0.12000
H1266       H  0.41439028  0.01718202  0.77986970     0.13900
C1267       C  0.39533166  0.05604939  0.05186705    -0.01600
C1268       C  0.40679008  0.08005897  0.05653878    -0.09600
C1269       C  0.43070167  0.08189913  0.05299061    -0.18400
C1270       C  0.44387354  0.05955901  0.04469116     0.04000
C1271       C  0.43181803  0.03569836  0.03839412     0.18100
C1272       C  0.40783544  0.03425730  0.04178623    -0.19900
C1273       C  0.44382859  0.01304311  0.02981471    -0.21100
C1274       C  0.46775503  0.01309560  0.02871780    -0.19700
C1275       C  0.48024110  0.03583123  0.03608338     0.19500
C1276       C  0.46854219  0.05963634  0.04344841     0.01600
C1277       C  0.48212540  0.08210127  0.05025920    -0.14400
C1278       C  0.50620084  0.08050392  0.05126285    -0.12100
C1279       C  0.51749284  0.05660041  0.04548444     0.01200
C1280       C  0.50441396  0.03457169  0.03709151    -0.24300
H1281       H  0.39739965  0.09716789  0.06421692     0.09200
H1282       H  0.43843287  0.10082391  0.05770826     0.12800
H1283       H  0.39892552  0.01578629  0.03739550     0.11500
H1284       H  0.43468137  0.99489805  0.02471214     0.12700
H1285       H  0.47657911  0.99499535  0.02277998     0.11700
H1286       H  0.47465811  0.10098295  0.05565247     0.08800
H1287       H  0.51593578  0.09777962  0.05787250     0.12000
H1288       H  0.51307905  0.01612663  0.03204546     0.13900
C1289       C  0.28125394  0.90116780  0.17680360    -0.01600
C1290       C  0.26595086  0.91738663  0.16179221    -0.09600
C1291       C  0.27407398  0.93779074  0.14464934    -0.18400
C1292       C  0.29795640  0.94274059  0.14190896     0.04000
C1293       C  0.31343959  0.92545116  0.15609562     0.18100
C1294       C  0.30502286  0.90504136  0.17334641    -0.19900
C1295       C  0.33726774  0.92885996  0.15333877    -0.21100
C1296       C  0.34609858  0.94939234  0.13718495    -0.19700
C1297       C  0.33133013  0.96726611  0.12367191     0.19500
C1298       C  0.30705211  0.96429834  0.12585913     0.01600
C1299       C  0.29302785  0.98352348  0.11263103    -0.14400
C1300       C  0.30276767  0.00462182  0.09775738    -0.12100
C1301       C  0.32677243  0.00726744  0.09498819     0.01200
C1302       C  0.34086708  0.98843011  0.10848316    -0.24300
H1303       H  0.24749511  0.91488507  0.16376986     0.09200
H1304       H  0.26120841  0.94942789  0.13395539     0.12800
H1305       H  0.31709031  0.89230813  0.18428141     0.11500
H1306       H  0.34917973  0.91565283  0.16390740     0.12700
H1307       H  0.36465631  0.95153606  0.13559900     0.11700
H1308       H  0.27447725  0.98313256  0.11384149     0.08800
H1309       H  0.29139114  0.01916102  0.08839268     0.12000
H1310       H  0.35936711  0.99033828  0.10847332     0.13900
C1311       C  0.33018159  0.06048653  0.00534966    -0.01600
C1312       C  0.30937845  0.05235302  0.99291269    -0.09600
C1313       C  0.30786481  0.04790794  0.96386128    -0.18400
C1314       C  0.32735314  0.05114601  0.94628165     0.04000
C1315       C  0.34761180  0.06222062  0.95850815     0.18100
C1316       C  0.34880559  0.06691389  0.98776847    -0.19900
C1317       C  0.36708239  0.06687138  0.94178346    -0.21100
C1318       C  0.36744210  0.05905695  0.91358595    -0.19700
C1319       C  0.34850391  0.04593959  0.90159237     0.19500
C1320       C  0.32795446  0.04233115  0.91756299     0.01600
C1321       C  0.30958488  0.02816364  0.90481234    -0.14400
C1322       C  0.31219823  0.01640592  0.87830079    -0.12100
C1323       C  0.33273982  0.01919508  0.86325402     0.01200
C1324       C  0.35052659  0.03481725  0.87440741    -0.24300
H1325       H  0.29448397  0.04811760  0.00592475     0.09200
H1326       H  0.29146292  0.04103500  0.95598930     0.12800
H1327       H  0.36497738  0.07337155  0.99701296     0.11500
H1328       H  0.38245810  0.07572410  0.95084361     0.12700
H1329       H  0.38307240  0.06210200  0.90149313     0.11700
H1330       H  0.29346018  0.02453787  0.91538801     0.08800
H1331       H  0.29836829  0.00423768  0.86989017     0.12000
H1332       H  0.36658446  0.03659073  0.86283483     0.13900
C1333       C  0.40615622  0.78328526  0.57593655    -0.01600
C1334       C  0.41709366  0.80135396  0.55806706    -0.09600
C1335       C  0.44075403  0.80562536  0.55977624    -0.18400
C1336       C  0.45442725  0.79178448  0.57952530     0.04000
C1337       C  0.44322282  0.77370552  0.59795139     0.18100
C1338       C  0.41926245  0.76974530  0.59611775    -0.19900
C1339       C  0.45607519  0.75931213  0.61766345    -0.21100
C1340       C  0.47996799  0.76174157  0.61874718    -0.19700
C1341       C  0.49154241  0.77879037  0.60030871     0.19500
C1342       C  0.47887970  0.79459722  0.58096044     0.01600
C1343       C  0.49133136  0.81200013  0.56330751    -0.14400
C1344       C  0.51533176  0.81219542  0.56339979    -0.12100
C1345       C  0.52775136  0.79543780  0.58127264     0.01200
C1346       C  0.51577351  0.77949493  0.60039898    -0.24300
H1347       H  0.40725544  0.81257669  0.54279069     0.09200
H1348       H  0.44777136  0.81968307  0.54507487     0.12800
H1349       H  0.41093902  0.75558295  0.60991665     0.11500
H1350       H  0.44764354  0.74564362  0.63191582     0.12700
H1351       H  0.48949791  0.74983532  0.63375366     0.11700
H1352       H  0.48313103  0.82540261  0.54881816     0.08800
H1353       H  0.52427787  0.82534414  0.54907289     0.12000
H1354       H  0.52523066  0.76660200  0.61435988     0.13900
C1355       C  0.29142869  0.79495450  0.38154328    -0.01600
C1356       C  0.28396234  0.77340446  0.39767858    -0.09600
C1357       C  0.29130263  0.77020123  0.42544293    -0.18400
C1358       C  0.30637665  0.78869689  0.43824114     0.04000
C1359       C  0.31452275  0.81012057  0.42154489     0.18100
C1360       C  0.30707464  0.81301201  0.39345401    -0.19900
C1361       C  0.32985567  0.82867121  0.43309369    -0.21100
C1362       C  0.33726768  0.82642495  0.46090713    -0.19700
C1363       C  0.32943273  0.80565766  0.47789598     0.19500
C1364       C  0.31376147  0.78660117  0.46690759     0.01600
C1365       C  0.30604702  0.76639252  0.48518219    -0.14400
C1366       C  0.31456164  0.76428197  0.51262630    -0.12100
C1367       C  0.33105156  0.78227081  0.52301637     0.01200
C1368       C  0.33750258  0.80360960  0.50573451    -0.24300
H1369       H  0.27228468  0.75881064  0.38883506     0.09200
H1370       H  0.28481645  0.75302191  0.43626172     0.12800
H1371       H  0.31296627  0.82976958  0.38117652     0.11500
H1372       H  0.33618548  0.84502127  0.42051770     0.12700
H1373       H  0.34925982  0.84101719  0.46917440     0.11700
H1374       H  0.29345974  0.75178794  0.47893680     0.08800
H1375       H  0.30785440  0.74841546  0.52536653     0.12000
H1376       H  0.34966055  0.81817855  0.51372619     0.13900
C1377       C  0.34762408  0.82083590  0.61999233    -0.01600
C1378       C  0.34321660  0.84730083  0.61290478    -0.09600
C1379       C  0.34423886  0.86732946  0.63329718    -0.18400
C1380       C  0.34999996  0.86159794  0.66163118     0.04000
C1381       C  0.35426515  0.83471083  0.66876263     0.18100
C1382       C  0.35278578  0.81474759  0.64814541    -0.19900
C1383       C  0.36013825  0.82784380  0.69642963    -0.21100
C1384       C  0.36162145  0.84710672  0.71735411    -0.19700
C1385       C  0.35720116  0.87370234  0.71115323     0.19500
C1386       C  0.35155127  0.88145650  0.68317730     0.01600
C1387       C  0.34749350  0.90869468  0.67815671    -0.14400
C1388       C  0.34816419  0.92720340  0.70019561    -0.12100
C1389       C  0.35294431  0.91925909  0.72787800     0.01200
C1390       C  0.35792235  0.89251456  0.73301291    -0.24300
H1391       H  0.33960469  0.85283930  0.59130935     0.09200
H1392       H  0.34072196  0.88712959  0.62610159     0.12800
H1393       H  0.35570631  0.79439751  0.65424315     0.11500
H1394       H  0.36354855  0.80739926  0.70195567     0.12700
H1395       H  0.36604073  0.84111061  0.73862724     0.11700
H1396       H  0.34339263  0.91629266  0.65754403     0.08800
H1397       H  0.34427590  0.94772548  0.69562452     0.12000
H1398       H  0.36182765  0.88611089  0.75430865     0.13900
C1399       C  0.40034483  0.27823498  0.19961933    -0.01600
C1400       C  0.41101674  0.29038635  0.17657613    -0.09600
C1401       C  0.43506227  0.29076299  0.17428200    -0.18400
C1402       C  0.44914773  0.27897769  0.19519428     0.04000
C1403       C  0.43803089  0.26576362  0.21787935     0.18100
C1404       C  0.41396020  0.26541471  0.21976760    -0.19900
C1405       C  0.45095469  0.25337313  0.23895388    -0.21100
C1406       C  0.47483818  0.25437659  0.23847971    -0.19700
C1407       C  0.48634833  0.26786090  0.21696501     0.19500
C1408       C  0.47377576  0.28015358  0.19480196     0.01600
C1409       C  0.48645003  0.29344276  0.17361275    -0.14400
C1410       C  0.51052440  0.29474158  0.17471861    -0.12100
C1411       C  0.52267823  0.28289942  0.19686339     0.01200
C1412       C  0.51045133  0.26927033  0.21772000    -0.24300
H1413       H  0.40079966  0.30039760  0.16072303     0.09200
H1414       H  0.44208809  0.30078702  0.15619028     0.12800
H1415       H  0.40577206  0.25528760  0.23724130     0.11500
H1416       H  0.44251939  0.24313599  0.25616773     0.12700
H1417       H  0.48437489  0.24484952  0.25530688     0.11700
H1418       H  0.47827847  0.30324713  0.15610125     0.08800
H1419       H  0.51962220  0.30546458  0.15839873     0.12000
H1420       H  0.51974521  0.25942755  0.23454631     0.13900
C1421       C  0.34170420  0.22857946  0.17168776    -0.01600
C1422       C  0.34385974  0.20489486  0.18671374    -0.09600
C1423       C  0.34456784  0.18054659  0.17283914    -0.18400
C1424       C  0.34301998  0.17885971  0.14310285     0.04000
C1425       C  0.34078376  0.20288098  0.12775524     0.18100
C1426       C  0.34044744  0.22749065  0.14209494    -0.19900
C1427       C  0.33874774  0.20207890  0.09827112    -0.21100
C1428       C  0.33857839  0.17793877  0.08376951    -0.19700
C1429       C  0.34073378  0.15393102  0.09830703     0.19500
C1430       C  0.34332630  0.15415969  0.12817640     0.01600
C1431       C  0.34611269  0.12960095  0.14190294    -0.14400
C1432       C  0.34554755  0.10587561  0.12688443    -0.12100
C1433       C  0.34210047  0.10541164  0.09758696     0.01200
C1434       C  0.34016354  0.12965062  0.08328535    -0.24300
H1435       H  0.34546463  0.20516692  0.20949650     0.09200
H1436       H  0.34618869  0.16342852  0.18616009     0.12800
H1437       H  0.33885258  0.24573980  0.13027916     0.11500
H1438       H  0.33703505  0.22025042  0.08634988     0.12700
H1439       H  0.33671290  0.17805420  0.06100744     0.11700
H1440       H  0.34891851  0.12791481  0.16428478     0.08800
H1441       H  0.34812972  0.08768155  0.13848167     0.12000
H1442       H  0.33773876  0.12964135  0.06060113     0.13900
C1443       C  0.32944538  0.28755050  0.25885659    -0.01600
C1444       C  0.33421111  0.31188516  0.27219410    -0.09600
C1445       C  0.32844566  0.31639163  0.30039066    -0.18400
C1446       C  0.31796623  0.29639860  0.31672908     0.04000
C1447       C  0.31283105  0.27188095  0.30320928     0.18100
C1448       C  0.31844277  0.26773681  0.27468245    -0.19900
C1449       C  0.30254271  0.25130305  0.31838946    -0.21100
C1450       C  0.29730005  0.25446745  0.34677081    -0.19700
C1451       C  0.30222114  0.27828297  0.36072138     0.19500
C1452       C  0.31265586  0.29964206  0.34601756     0.01600
C1453       C  0.31740832  0.32315308  0.36138475    -0.14400
C1454       C  0.31163374  0.32542006  0.38993917    -0.12100
C1455       C  0.30090843  0.30444099  0.40408019     0.01200
C1456       C  0.29658117  0.28083086  0.38935121    -0.24300
H1457       H  0.34300486  0.32746304  0.26078309     0.09200
H1458       H  0.33281096  0.33558747  0.30888614     0.12800
H1459       H  0.31492757  0.24853831  0.26558338     0.11500
H1460       H  0.29860541  0.23253753  0.30826347     0.12700
H1461       H  0.28934438  0.23812315  0.35790796     0.11700
H1462       H  0.32539394  0.34022466  0.35191893     0.08800
H1463       H  0.31507886  0.34395613  0.40071802     0.12000
H1464       H  0.28865387  0.26427651  0.40014398     0.13900
C1465       C  0.40673619  0.56040285  0.73082303    -0.01600
C1466       C  0.41722064  0.58512768  0.72688509    -0.09600
C1467       C  0.44123631  0.58747409  0.72589937    -0.18400
C1468       C  0.45556437  0.56492475  0.72840649     0.04000
C1469       C  0.44478625  0.54008407  0.73353881     0.18100
C1470       C  0.42070829  0.53817109  0.73521643    -0.19900
C1471       C  0.45800019  0.51702061  0.73573261    -0.21100
C1472       C  0.48166546  0.51781210  0.73147970    -0.19700
C1473       C  0.49272067  0.54176180  0.72543664     0.19500
C1474       C  0.48003079  0.56583707  0.72474508     0.01600
C1475       C  0.49235968  0.58955788  0.71956715    -0.14400
C1476       C  0.51598253  0.58907485  0.71360456    -0.12100
C1477       C  0.52794829  0.56508645  0.71246295     0.01200
C1478       C  0.51634833  0.54161552  0.71924857    -0.24300
H1479       H  0.40688419  0.60261909  0.72317719     0.09200
H1480       H  0.44800248  0.60700521  0.72200947     0.12800
H1481       H  0.41279551  0.51903854  0.73895910     0.11500
H1482       H  0.44987321  0.49806832  0.73980667     0.12700
H1483       H  0.49132859  0.49946310  0.73237496     0.11700
H1484       H  0.48418641  0.60871445  0.71952824     0.08800
H1485       H  0.52462538  0.60742846  0.70876643     0.12000
H1486       H  0.52571878  0.52302557  0.71913534     0.13900
C1487       C  0.35397955  0.60974921  0.69090041    -0.01600
C1488       C  0.35835858  0.60832399  0.66187951    -0.09600
C1489       C  0.35881504  0.63099719  0.64548286    -0.18400
C1490       C  0.35487297  0.65614422  0.65761764     0.04000
C1491       C  0.35199856  0.65778604  0.68740256     0.18100
C1492       C  0.35158407  0.63458115  0.70380997    -0.19900
C1493       C  0.34924479  0.68252394  0.70043430    -0.21100
C1494       C  0.34903576  0.70563047  0.68445629    -0.19700
C1495       C  0.35103839  0.70448848  0.65501288     0.19500
C1496       C  0.35371180  0.67964975  0.64117215     0.01600
C1497       C  0.35459452  0.67930159  0.61135860    -0.14400
C1498       C  0.35331378  0.70263443  0.59600467    -0.12100
C1499       C  0.35114099  0.72708859  0.60968381     0.01200
C1500       C  0.35012181  0.72797818  0.63920168    -0.24300
H1501       H  0.36139146  0.58941101  0.65164845     0.09200
H1502       H  0.36241003  0.62807476  0.62339999     0.12800
H1503       H  0.34867055  0.63577909  0.72637797     0.11500
H1504       H  0.34722239  0.68401112  0.72312251     0.12700
H1505       H  0.34692902  0.72448943  0.69515769     0.11700
H1506       H  0.35593596  0.66134199  0.59913916     0.08800
H1507       H  0.35438093  0.70153471  0.57320166     0.12000
H1508       H  0.34814118  0.74688756  0.64981247     0.13900
C1509       C  0.33549217  0.51381629  0.69511383    -0.01600
C1510       C  0.31743659  0.49787374  0.70522070    -0.09600
C1511       C  0.30816232  0.47760843  0.68859741    -0.18400
C1512       C  0.31644680  0.47267132  0.66105215     0.04000
C1513       C  0.33476595  0.48874090  0.65094677     0.18100
C1514       C  0.34415468  0.50869921  0.66799500    -0.19900
C1515       C  0.34337082  0.48521141  0.62364378    -0.21100
C1516       C  0.33398748  0.46611328  0.60592243    -0.19700
C1517       C  0.31596148  0.44992902  0.61521926     0.19500
C1518       C  0.30699672  0.45274297  0.64297120     0.01600
C1519       C  0.28888332  0.43560968  0.65121873    -0.14400
C1520       C  0.27985086  0.41684846  0.63246375    -0.12100
C1521       C  0.28868625  0.41442143  0.60510862     0.01200
C1522       C  0.30678364  0.43099050  0.59672536    -0.24300
H1523       H  0.30983229  0.50093291  0.72569528     0.09200
H1524       H  0.29420982  0.46648539  0.69777404     0.12800
H1525       H  0.35799112  0.52095783  0.65982561     0.11500
H1526       H  0.35729809  0.49750040  0.61582826     0.12700
H1527       H  0.34087208  0.46400051  0.58477140     0.11700
H1528       H  0.28133511  0.43615256  0.67197559     0.08800
H1529       H  0.26604050  0.40403279  0.63951983     0.12000
H1530       H  0.31358289  0.42953491  0.57548820     0.13900
C1531       C  0.33870034  0.42405260  0.05619387    -0.01600
C1532       C  0.34249539  0.43165217  0.08427510    -0.09600
C1533       C  0.34350049  0.41268706  0.10567162    -0.18400
C1534       C  0.34071381  0.38536490  0.09957085     0.04000
C1535       C  0.33713779  0.37783752  0.07097157     0.18100
C1536       C  0.33612274  0.39706353  0.04978273    -0.19900
C1537       C  0.33453392  0.35113534  0.06357245    -0.21100
C1538       C  0.33535654  0.33156387  0.08403057    -0.19700
C1539       C  0.33861973  0.33823171  0.11241955     0.19500
C1540       C  0.34126621  0.36523193  0.12068437     0.01600
C1541       C  0.34416583  0.37083057  0.14972992    -0.14400
C1542       C  0.34427100  0.35052451  0.16960400    -0.12100
C1543       C  0.34172919  0.32402724  0.16125074     0.01200
C1544       C  0.33912290  0.31798408  0.13263687    -0.24300
H1545       H  0.34465729  0.45235435  0.08978588     0.09200
H1546       H  0.34650133  0.42006179  0.12673022     0.12800
H1547       H  0.33328108  0.39086595  0.02811132     0.11500
H1548       H  0.33184171  0.34532640  0.04176132     0.12700
H1549       H  0.33329199  0.31106011  0.07761228     0.11700
H1550       H  0.34630577  0.39066426  0.15780551     0.08800
H1551       H  0.34676087  0.35556130  0.19164944     0.12000
H1552       H  0.33710191  0.29748539  0.12615080     0.13900
C1553       C  0.33264222  0.52972329  0.92512430    -0.01600
C1554       C  0.35206239  0.54464753  0.91794400    -0.09600
C1555       C  0.35354339  0.55662777  0.89144115    -0.18400
C1556       C  0.33544095  0.55397137  0.87152801     0.04000
C1557       C  0.31493068  0.54084953  0.88024986     0.18100
C1558       C  0.31387613  0.52857666  0.90666342    -0.19900
C1559       C  0.29599886  0.53888475  0.86205888    -0.21100
C1560       C  0.29740629  0.54836610  0.83468965    -0.19700
C1561       C  0.31806235  0.55907863  0.82462257     0.19500
C1562       C  0.33731569  0.56246960  0.84290330     0.01600
C1563       C  0.35809001  0.57219669  0.83110038    -0.14400
C1564       C  0.36026964  0.57560030  0.80193327    -0.12100
C1565       C  0.34165158  0.57022232  0.78397718     0.01200
C1566       C  0.32014990  0.56415084  0.79575017    -0.24300
H1567       H  0.36669020  0.54568197  0.93216829     0.09200
H1568       H  0.36923958  0.56723560  0.88687229     0.12800
H1569       H  0.29877466  0.51710828  0.91246898     0.11500
H1570       H  0.28020945  0.52929304  0.86879624     0.12700
H1571       H  0.28268099  0.54582612  0.82080670     0.11700
H1572       H  0.37342922  0.57539892  0.84353599     0.08800
H1573       H  0.37706183  0.58036241  0.79333238     0.12000
H1574       H  0.30550613  0.56064915  0.78194377     0.13900
C1575       C  0.59025105  0.41512919  0.03638415    -0.01600
C1576       C  0.59244641  0.42514508  0.06388146    -0.09600
C1577       C  0.59133053  0.40822403  0.08719348    -0.18400
C1578       C  0.58790389  0.38061554  0.08364510     0.04000
C1579       C  0.58563566  0.37070507  0.05564446     0.18100
C1580       C  0.58682139  0.38786301  0.03255590    -0.19900
C1581       C  0.58222518  0.34365511  0.05068855    -0.21100
C1582       C  0.58092935  0.32605585  0.07300045    -0.19700
C1583       C  0.58300887  0.33507075  0.10081722     0.19500
C1584       C  0.58659579  0.36243287  0.10668350     0.01600
C1585       C  0.58864859  0.37023679  0.13531307    -0.14400
C1586       C  0.58701426  0.35163268  0.15704362    -0.12100
C1587       C  0.58324626  0.32476459  0.15097130     0.01200
C1588       C  0.58141547  0.31671221  0.12280400    -0.24300
H1589       H  0.59523176  0.44611932  0.06741758     0.09200
H1590       H  0.59324551  0.41732271  0.10767829     0.12800
H1591       H  0.58508075  0.37981056  0.01140164     0.11500
H1592       H  0.58051415  0.33603483  0.02936188     0.12700
H1593       H  0.57821697  0.30521520  0.06845501     0.11700
H1594       H  0.59137248  0.39054567  0.14158868     0.08800
H1595       H  0.58823673  0.35841488  0.17870941     0.12000
H1596       H  0.57893950  0.29594947  0.11784589     0.13900
C1597       C  0.60358290  0.50793200  0.89501759    -0.01600
C1598       C  0.62040110  0.50116822  0.87517899    -0.09600
C1599       C  0.62119576  0.51375171  0.84906820    -0.18400
C1600       C  0.60449085  0.53290204  0.84161161     0.04000
C1601       C  0.58751916  0.53981534  0.86199609     0.18100
C1602       C  0.58768800  0.52793581  0.88879629    -0.19900
C1603       C  0.56969006  0.55726749  0.85488096    -0.21100
C1604       C  0.56741428  0.56648787  0.82735567    -0.19700
C1605       C  0.58349540  0.55940207  0.80663779     0.19500
C1606       C  0.60301204  0.54386765  0.81397325     0.01600
C1607       C  0.61979132  0.53917808  0.79300182    -0.14400
C1608       C  0.61599686  0.54681860  0.76518027    -0.12100
C1609       C  0.59532253  0.55913113  0.75720860     0.01200
C1610       C  0.57967241  0.56663915  0.77835663    -0.24300
H1611       H  0.63274780  0.48565114  0.87972743     0.09200
H1612       H  0.63426491  0.50694971  0.83461174     0.12800
H1613       H  0.57441099  0.53281634  0.90405911     0.11500
H1614       H  0.55673482  0.56271416  0.87031398     0.12700
H1615       H  0.55273114  0.57879988  0.82210827     0.11700
H1616       H  0.63589717  0.52936266  0.79739099     0.08800
H1617       H  0.62905848  0.54214670  0.74963313     0.12000
H1618       H  0.56377172  0.57655564  0.77273487     0.13900
C1619       C  0.52601699  0.46675730  0.95902507    -0.01600
C1620       C  0.51552225  0.49157641  0.96155574    -0.09600
C1621       C  0.49167992  0.49380064  0.96365944    -0.18400
C1622       C  0.47749960  0.47101829  0.96390865     0.04000
C1623       C  0.48810732  0.44593089  0.95956590     0.18100
C1624       C  0.51222516  0.44401977  0.95701969    -0.19900
C1625       C  0.47462377  0.42291537  0.95855080    -0.21100
C1626       C  0.45081801  0.42425366  0.96204245    -0.19700
C1627       C  0.43999951  0.44855629  0.96732453     0.19500
C1628       C  0.45325071  0.47225724  0.96869187     0.01600
C1629       C  0.44177982  0.49608703  0.97571861    -0.14400
C1630       C  0.41815223  0.49638184  0.98083546    -0.12100
C1631       C  0.40507918  0.47316330  0.97868774     0.01200
C1632       C  0.41603513  0.44929394  0.97176089    -0.24300
H1633       H  0.52589310  0.50944203  0.96239826     0.09200
H1634       H  0.48495789  0.51361675  0.96535425     0.12800
H1635       H  0.52031462  0.42476244  0.95483566     0.11500
H1636       H  0.48255247  0.40373489  0.95514851     0.12700
H1637       H  0.44085432  0.40608657  0.96114851     0.11700
H1638       H  0.45058694  0.51476187  0.97802295     0.08800
H1639       H  0.40999368  0.51503833  0.98619500     0.12000
H1640       H  0.40598369  0.43119418  0.97050050     0.13900
loop_ 
_geom_bond_atom_site_label_1 
_geom_bond_atom_site_label_2 
_geom_bond_distance 
_geom_bond_site_symmetry_2 
_ccdc_geom_bond_type 
O1           Cu9   1.992       .  S
O1           C11   1.275       .  A
O2           Cu9   1.986       .  S
O2           C12   1.276       .  A
O3           Cu9   2.028   1_554  S
O3           C13   1.281       .  A
O4           Cu9   2.014       .  S
O4           C14   1.278       .  A
O5          Cu10   2.002       .  S
O5           C14   1.277       .  A
O6          Cu10   1.986       .  S
O6           C13   1.276   1_556  A
O7          Cu10   2.020       .  S
O7           C12   1.279       .  A
O8          Cu10   2.010       .  S
O8           C11   1.277       .  A
Cu9         Cu10   2.374       .  S
C11         C314   1.457       .  S
C12        C1619   1.472       .  S
C13        C1575   1.481       .  S
C14        C1597   1.469       .  S
O15         Cu23   2.021       .  S
O15          C25   1.280       .  A
O16         Cu23   2.022   1_556  S
O16          C26   1.279       .  A
O17         Cu23   2.003       .  S
O17          C27   1.275   1_554  A
O18         Cu23   1.993       .  S
O18          C28   1.277   1_554  A
O19         Cu24   2.013       .  S
O19          C28   1.278       .  A
O20         Cu24   2.006       .  S
O20          C27   1.277       .  A
O21         Cu24   1.986       .  S
O21          C26   1.275       .  A
O22         Cu24   1.987   1_554  S
O22          C25   1.276       .  A
Cu23        Cu24   2.376   1_554  S
C25        C1531   1.480       .  S
C26        C1553   1.464       .  S
C27         C438   1.457   1_556  S
C28        C1631   1.472       .  S
C29          C30   1.526       .  S
C29          C35   1.530       .  S
C29          C33   1.536       .  S
C29        C1509   1.522       .  S
C30          H37   1.087       .  S
C30          C31   1.363       .  D
C31          C32   1.539       .  S
C31        C1487   1.478       .  S
C32          C36   1.544       .  S
C32          C34   1.541       .  S
C32          H38   1.109       .  S
C33          H39   1.086       .  S
C33          C34   1.369       .  D
C34        C1465   1.485       .  S
C35          H40   1.081       .  S
C35          C36   1.368       .  D
C36        C1565   1.482       .  S
C41          C42   1.545       .  S
C41          C47   1.533       .  S
C41          C45   1.533       .  S
C41        C1443   1.529       .  S
C42          H49   1.082       .  S
C42          C43   1.371       .  D
C43          C44   1.538       .  S
C43        C1421   1.489       .  S
C44          C48   1.540       .  S
C44          C46   1.536       .  S
C44          H50   1.110       .  S
C45          H51   1.086       .  S
C45          C46   1.365       .  D
C46        C1399   1.480       .  S
C47          H52   1.086       .  S
C47          C48   1.365       .  D
C48        C1543   1.478       .  S
N53          N54   1.319       .  A
N53          C57   1.346       .  A
N53         Cu61   2.064       .  S
N54          C55   1.340       .  A
N54         Cu60   2.058       .  S
C55          C56   1.385       .  A
C55          H58   1.081       .  S
C56        C1455   1.481       .  S
C56          C57   1.388       .  A
C57          H59   1.082       .  S
Cu60         N63   2.057       .  S
Cu61         N71   2.064       .  S
Cu62         N64   2.074       .  S
Cu62         N70   2.074       .  S
N63          N64   1.322       .  A
N63          C67   1.344       .  A
N64          C65   1.344       .  A
C65          C66   1.381       .  A
C65          H68   1.082       .  S
C66         C261   1.457       .  S
C66          C67   1.376       .  A
C67          H69   1.082       .  S
N70          N71   1.322       .  A
N70          C74   1.346       .  A
N71          C72   1.339       .  A
C72          C73   1.382       .  A
C72          H75   1.081       .  S
C73        C1521   1.476       .  S
C73          C74   1.386       .  A
C74          H76   1.082       .  S
C77          C78   1.537       .  S
C77          C83   1.540       .  S
C77          C81   1.537       .  S
C77        C1367   1.527       .  S
C78          H85   1.085       .  S
C78          C79   1.371       .  D
C79          C80   1.540       .  S
C79        C1377   1.490       .  S
C80          C84   1.534       .  S
C80          C82   1.533       .  S
C80          H86   1.107       .  S
C81          H87   1.086       .  S
C81          C82   1.364       .  D
C82        C1333   1.480       .  S
C83          H88   1.081       .  S
C83          C84   1.365       .  D
C84        C1499   1.477       .  S
C89          C90   1.533       .  S
C89          C95   1.528       .  S
C89          C93   1.544       .  S
C89        C1301   1.533       .  S
C90          H97   1.086       .  S
C90          C91   1.371       .  D
C91          C92   1.549       .  S
C91        C1311   1.490       .  S
C92          C96   1.546       .  S
C92          C94   1.536       .  S
C92          H98   1.110       .  S
C93          H99   1.080       .  S
C93          C94   1.365       .  D
C94        C1267   1.482       .  S
C95         H100   1.086       .  S
C95          C96   1.369       .  D
C96        C1433   1.494       .  S
N101        N102   1.321       .  A
N101        C105   1.349       .  A
N101       Cu109   2.085       .  S
N102        C103   1.339       .  A
N102       Cu108   2.053       .  S
C103        C104   1.381       .  A
C103        H106   1.082       .  S
C104       C1355   1.480       .  S
C104        C105   1.390       .  A
C105        H107   1.082       .  S
Cu108       N111   2.053       .  S
Cu109       N119   2.086       .  S
Cu110       N112   2.065       .  S
Cu110       N118   2.066       .  S
N111        N112   1.320       .  A
N111        C115   1.342       .  A
N112        C113   1.345       .  A
C113        C114   1.380       .  A
C113        H116   1.082       .  S
C114        C384   1.454       .  S
C114        C115   1.377       .  A
C115        H117   1.082       .  S
N118        N119   1.322       .  A
N118        C122   1.342       .  A
N119        C120   1.346       .  A
C120        C121   1.390       .  A
C120        H123   1.081       .  S
C121       C1289   1.485       .  S
C121        C122   1.385       .  A
C122        H124   1.081       .  S
O125       Cu133   2.011   1_565  S
O125        C135   1.277       .  A
O126       Cu133   2.010       .  S
O126        C136   1.277       .  A
O127       Cu133   2.008       .  S
O127        C137   1.277   1_545  A
O128       Cu133   2.000       .  S
O128        C138   1.278   1_545  A
O129       Cu134   1.985       .  S
O129        C138   1.276       .  A
O130       Cu134   1.986       .  S
O130        C137   1.274       .  A
O131       Cu134   1.996   1_545  S
O131        C136   1.277       .  A
O132       Cu134   1.981       .  S
O132        C135   1.274       .  A
Cu133      Cu134   2.376   1_545  S
C135       C1223   1.457       .  S
C136       C1201   1.465       .  S
C137        C362   1.454       .  S
C138       C1245   1.470       .  S
O139       Cu147   1.995       .  S
O139        C149   1.274       .  A
O140       Cu147   1.988       .  S
O140        C150   1.276       .  A
O141       Cu147   2.028       .  S
O141        C151   1.281       .  A
O142       Cu147   2.023   1_545  S
O142        C152   1.278       .  A
O143       Cu148   1.999       .  S
O143        C152   1.276   1_565  A
O144       Cu148   1.993       .  S
O144        C151   1.276       .  A
O145       Cu148   2.000       .  S
O145        C150   1.277       .  A
O146       Cu148   1.997       .  S
O146        C149   1.276       .  A
Cu147      Cu148   2.375       .  S
C149        C486   1.451       .  S
C150       C1257   1.471       .  S
C151       C1389   1.482       .  S
C152       C1323   1.468       .  S
C153        C154   1.541       .  S
C153        C159   1.530       .  S
C153        C157   1.532       .  S
C153       C1179   1.524       .  S
C154        H161   1.079       .  S
C154        C155   1.369       .  D
C155        C156   1.541       .  S
C155       C1157   1.492       .  S
C156        C160   1.545       .  S
C156        C158   1.537       .  S
C156        H162   1.105       .  S
C157        H163   1.087       .  S
C157        C158   1.363       .  D
C158       C1345   1.480       .  S
C159        H164   1.085       .  S
C159        C160   1.368       .  D
C160       C1235   1.486       .  S
C165        C166   1.531       .  S
C165        C171   1.533       .  S
C165        C169   1.537       .  S
C165       C1135   1.530       .  S
C166        H173   1.086       .  S
C166        C167   1.368       .  D
C167        C168   1.541       .  S
C167       C1125   1.489       .  S
C168        C172   1.545       .  S
C168        C170   1.543       .  S
C168        H174   1.109       .  S
C169        H175   1.086       .  S
C169        C170   1.369       .  D
C170       C1279   1.485       .  S
C171        H176   1.081       .  S
C171        C172   1.368       .  D
C172       C1213   1.487   1_554  S
N177        N178   1.320       .  A
N177        C181   1.344       .  A
N177       Cu185   2.070       .  S
N178        C179   1.340       .  A
N178       Cu184   2.053       .  S
C179        C180   1.383       .  A
C179        H182   1.081       .  S
C180       C1191   1.479       .  S
C180        C181   1.388       .  A
C181        H183   1.081       .  S
Cu184       N187   2.052       .  S
Cu185       N195   2.071       .  S
Cu186       N188   2.076       .  S
Cu186       N194   2.076       .  S
N187        N188   1.322       .  A
N187        C191   1.343       .  A
N188        C189   1.345       .  A
C189        C190   1.382       .  A
C189        H192   1.082       .  S
C190        C397   1.456       .  S
C190        C191   1.375       .  A
C191        H193   1.082       .  S
N194        N195   1.322       .  A
N194        C198   1.345       .  A
N195        C196   1.344       .  A
C196        C197   1.386       .  A
C196        H199   1.081       .  S
C197       C1147   1.483       .  S
C197        C198   1.387       .  A
C198        H200   1.081       .  S
C201        C202   1.530       .  S
C201        C207   1.530       .  S
C201        C205   1.543       .  S
C201       C1091   1.530       .  S
C202        H209   1.086       .  S
C202        C203   1.369       .  D
C203        C204   1.546       .  S
C203       C1609   1.489       .  S
C204        C208   1.545       .  S
C204        C206   1.538       .  S
C204        H210   1.109       .  S
C205        H211   1.080       .  S
C205        C206   1.365       .  D
C206       C1477   1.482       .  S
C207        H212   1.086       .  S
C207        C208   1.368       .  D
C208       C1169   1.485       .  S
C213        C214   1.536       .  S
C213        C219   1.545       .  S
C213        C217   1.537       .  S
C213       C1069   1.531       .  S
C214        H221   1.086       .  S
C214        C215   1.370       .  D
C215        C216   1.543       .  S
C215       C1587   1.484       .  S
C216        C220   1.532       .  S
C216        C218   1.535       .  S
C216        H222   1.109       .  S
C217        H223   1.086       .  S
C217        C218   1.366       .  D
C218       C1411   1.482       .  S
C219        H224   1.080       .  S
C219        C220   1.365       .  D
C220       C1113   1.484       .  S
N225        N226   1.320       .  A
N225        C229   1.343       .  A
N225       Cu233   2.062       .  S
N226        C227   1.344       .  A
N226       Cu232   2.066       .  S
C227        C228   1.385       .  A
C227        H230   1.082       .  S
C228       C1081   1.478       .  S
C228        C229   1.385       .  A
C229        H231   1.082       .  S
Cu232       N235   2.066       .  S
Cu233       N243   2.063       .  S
Cu234       N236   2.076       .  S
Cu234       N242   2.076       .  S
N235        N236   1.324       .  A
N235        C239   1.344       .  A
N236        C237   1.344       .  A
C237        C238   1.380       .  A
C237        H240   1.082       .  S
C238        C275   1.459       .  S
C238        C239   1.378       .  A
C239        H241   1.082       .  S
N242        N243   1.320       .  A
N242        C246   1.348       .  A
N243        C244   1.339       .  A
C244        C245   1.387       .  A
C244        H247   1.080       .  S
C245       C1103   1.487       .  S
C245        C246   1.391       .  A
C246        H248   1.081       .  S
O249       Cu257   2.022       .  S
O249        C259   1.279       .  A
O250       Cu257   2.022       .  S
O250        C260   1.278       .  A
O251       Cu257   2.002       .  S
O251        C261   1.276       .  A
O252       Cu257   1.993       .  S
O252        C262   1.278       .  A
O253       Cu258   2.001       .  S
O253        C262   1.277       .  A
O254       Cu258   2.003       .  S
O254        C261   1.276       .  A
O255       Cu258   1.992       .  S
O255        C260   1.276       .  A
O256       Cu258   1.980       .  S
O256        C259   1.274       .  A
Cu257      Cu258   2.375       .  S
C259       C1025   1.462       .  S
C260       C1003   1.467       .  S
C262       C1047   1.473       .  S
O263       Cu271   1.982       .  S
O263        C273   1.275       .  A
O264       Cu271   1.997       .  S
O264        C274   1.277       .  A
O265       Cu271   2.002       .  S
O265        C275   1.276       .  A
O266       Cu271   2.001       .  S
O266        C276   1.277       .  A
O267       Cu272   1.995       .  S
O267        C276   1.278       .  A
O268       Cu272   2.004       .  S
O268        C275   1.276       .  A
O269       Cu272   2.008       .  S
O269        C274   1.277       .  A
O270       Cu272   2.014       .  S
O270        C273   1.277       .  A
Cu271      Cu272   2.372       .  S
C273        C981   1.459       .  S
C274        C959   1.466       .  S
C276       C1059   1.474       .  S
C277        C278   1.537       .  S
C277        C283   1.541       .  S
C277        C281   1.537       .  S
C277        C937   1.522       .  S
C278        H285   1.086       .  S
C278        C279   1.367       .  D
C279        C280   1.540       .  S
C279        C993   1.483       .  S
C280        C284   1.542       .  S
C280        C282   1.530       .  S
C280        H286   1.105       .  S
C281        H287   1.087       .  S
C281        C282   1.359       .  D
C282        C893   1.475       .  S
C283        H288   1.079       .  S
C283        C284   1.370       .  D
C284        C915   1.496       .  S
C289        C290   1.527       .  S
C289        C295   1.534       .  S
C289        C293   1.539       .  S
C289        C883   1.523       .  S
C290        H297   1.085       .  S
C290        C291   1.368       .  D
C291        C292   1.545       .  S
C291        C971   1.491       .  S
C292        C296   1.539       .  S
C292        C294   1.541       .  S
C292        H298   1.107       .  S
C293        H299   1.080       .  S
C293        C294   1.368       .  D
C294        C827   1.488       .  S
C295        H300   1.086       .  S
C295        C296   1.365       .  D
C296        C849   1.479       .  S
N301        N302   1.321       .  A
N301        C305   1.342       .  A
N301       Cu309   2.060       .  S
N302        C303   1.343       .  A
N302       Cu308   2.063       .  S
C303        C304   1.383       .  A
C303        H306   1.082       .  S
C304        C949   1.474       .  S
C304        C305   1.384       .  A
C305        H307   1.082       .  S
Cu308       N311   2.063       .  S
Cu309       N319   2.060   1_556  S
Cu310       N312   2.063   1_554  S
Cu310       N318   2.064       .  S
N311        N312   1.322       .  A
N311        C315   1.342       .  A
N312        C313   1.344       .  A
C313        C314   1.380       .  A
C313        H316   1.082       .  S
C314        C315   1.379       .  A
C315        H317   1.082       .  S
N318        N319   1.320       .  A
N318        C322   1.341       .  A
N319        C320   1.342       .  A
C320        C321   1.388       .  A
C320        H323   1.081       .  S
C321        C871   1.482       .  S
C321        C322   1.387       .  A
C322        H324   1.081       .  S
C325        C326   1.534       .  S
C325        C331   1.534       .  S
C325        C329   1.542       .  S
C325        C795   1.536       .  S
C326        H333   1.086       .  S
C326        C327   1.368       .  D
C327        C328   1.543       .  S
C327        C927   1.483       .  S
C328        C332   1.540       .  S
C328        C330   1.539       .  S
C328        H334   1.109       .  S
C329        H335   1.078       .  S
C329        C330   1.365       .  D
C330        C761   1.491       .  S
C331        H336   1.086       .  S
C331        C332   1.370       .  D
C332        C805   1.484       .  S
C337        C338   1.546       .  S
C337        C343   1.535   1_545  S
C337        C341   1.536       .  S
C337        C717   1.524       .  S
C338        H345   1.080       .  S
C338        C339   1.370       .  D
C339        C340   1.536       .  S
C339        C861   1.486       .  S
C340        C344   1.538   1_545  S
C340        C342   1.534       .  S
C340        H346   1.107       .  S
C341        H347   1.086       .  S
C341        C342   1.364       .  D
C342        C707   1.485       .  S
C343        H348   1.086       .  S
C343        C344   1.363       .  D
C344        C739   1.478       .  S
N349        N350   1.320   1_565  A
N349        C353   1.343       .  A
N349       Cu357   2.073       .  S
N350        C351   1.343       .  A
N350       Cu356   2.057       .  S
C351        C352   1.386   1_545  A
C351        H354   1.081       .  S
C352        C729   1.483   1_565  S
C352        C353   1.389       .  A
C353        H355   1.081       .  S
Cu356       N359   2.056   1_545  S
Cu357       N367   2.074       .  S
Cu358       N360   2.075       .  S
Cu358       N366   2.074       .  S
N359        N360   1.323       .  A
N359        C363   1.344   1_565  A
N360        C361   1.342       .  A
C361        C362   1.381       .  A
C361        H364   1.082       .  S
C362        C363   1.376   1_565  A
C363        H365   1.082       .  S
N366        N367   1.321       .  A
N366        C370   1.346       .  A
N367        C368   1.343       .  A
C368        C369   1.389       .  A
C368        H371   1.081       .  S
C369        C783   1.487       .  S
C369        C370   1.389       .  A
C370        H372   1.081       .  S
O373       Cu381   1.983       .  S
O373        C383   1.276       .  A
O374       Cu381   1.992       .  S
O374        C384   1.274       .  A
O375       Cu381   2.020       .  S
O375        C385   1.278       .  A
O376       Cu381   2.020       .  S
O376        C386   1.280       .  A
O377       Cu382   1.980       .  S
O377        C386   1.275       .  A
O378       Cu382   1.980       .  S
O378        C385   1.274       .  A
O379       Cu382   2.009       .  S
O379        C384   1.278       .  A
O380       Cu382   2.021       .  S
O380        C383   1.279       .  A
Cu381      Cu382   2.377       .  S
C383        C685   1.475       .  S
C385        C651   1.461       .  S
C386        C629   1.476       .  S
O387       Cu395   2.009       .  S
O387        C397   1.277       .  A
O388       Cu395   2.022       .  S
O388        C398   1.279       .  A
O389       Cu395   1.983       .  S
O389        C399   1.276       .  A
O390       Cu395   2.000       .  S
O390        C400   1.277       .  A
O391       Cu396   2.013       .  S
O391        C400   1.277       .  A
O392       Cu396   2.020       .  S
O392        C399   1.279       .  A
O393       Cu396   1.986       .  S
O393        C398   1.277       .  A
O394       Cu396   1.995       .  S
O394        C397   1.274       .  A
Cu395      Cu396   2.373       .  S
C398        C673   1.478       .  S
C399        C751   1.478       .  S
C400        C817   1.467       .  S
C401        C402   1.538       .  S
C401        C407   1.536       .  S
C401        C405   1.534       .  S
C401        C607   1.528       .  S
C402        H409   1.080       .  S
C402        C403   1.364       .  D
C403        C404   1.538       .  S
C403        C597   1.487       .  S
C404        C408   1.546       .  S
C404        C406   1.537       .  S
C404        H410   1.106       .  S
C405        H411   1.086       .  S
C405        C406   1.364       .  D
C406        C905   1.477       .  S
C407        H412   1.085       .  S
C407        C408   1.372       .  D
C408       C1037   1.492       .  S
C413        C414   1.529       .  S
C413        C419   1.534       .  S
C413        C417   1.536       .  S
C413        C563   1.528       .  S
C414        H421   1.086       .  S
C414        C415   1.369       .  D
C415        C416   1.545       .  S
C415        C541   1.487       .  S
C416        C420   1.545       .  S
C416        C418   1.537       .  S
C416        H422   1.110       .  S
C417        H423   1.087       .  S
C417        C418   1.365       .  D
C418        C839   1.479       .  S
C419        H424   1.082       .  S
C419        C420   1.369       .  D
C420       C1015   1.486       .  S
N425        N426   1.321       .  A
N425        C429   1.346       .  A
N425       Cu433   2.080   1_556  S
N426        C427   1.342       .  A
N426       Cu432   2.058       .  S
C427        C428   1.383       .  A
C427        H430   1.082       .  S
C428        C619   1.480       .  S
C428        C429   1.388       .  A
C429        H431   1.081       .  S
Cu432       N435   2.058       .  S
Cu433       N443   2.081       .  S
Cu434       N436   2.071       .  S
Cu434       N442   2.072       .  S
N435        N436   1.322   1_556  A
N435        C439   1.343       .  A
N436        C437   1.346       .  A
C437        C438   1.381       .  A
C437        H440   1.082       .  S
C438        C439   1.377   1_554  A
C439        H441   1.082       .  S
N442        N443   1.322       .  A
N442        C446   1.343       .  A
N443        C444   1.346       .  A
C444        C445   1.388       .  A
C444        H447   1.081       .  S
C445        C575   1.484       .  S
C445        C446   1.386       .  A
C446        H448   1.082       .  S
C449        C450   1.539       .  S
C449        C455   1.526       .  S
C449        C453   1.539       .  S
C449        C519   1.525       .  S
C450        H457   1.084       .  S
C450        C451   1.370       .  D
C451        C452   1.541       .  S
C451        C663   1.483       .  S
C452        C456   1.542       .  S
C452        C454   1.541       .  S
C452        H458   1.108       .  S
C453        H459   1.085       .  S
C453        C454   1.369       .  D
C454        C773   1.491       .  S
C455        H460   1.086       .  S
C455        C456   1.364       .  D
C456        C585   1.486       .  S
C461        C462   1.529   1_545  S
C461        C467   1.537       .  S
C461        C465   1.539       .  S
C461        C497   1.522       .  S
C462        H469   1.086       .  S
C462        C463   1.366       .  D
C463        C464   1.538   1_565  S
C463        C641   1.478       .  S
C464        C468   1.538       .  S
C464        C466   1.536       .  S
C464        H470   1.110       .  S
C465        H471   1.086       .  S
C465        C466   1.367       .  D
C466        C695   1.479       .  S
C467        H472   1.082       .  S
C467        C468   1.364       .  D
C468        C553   1.480       .  S
N473        N474   1.320       .  A
N473        C477   1.345       .  A
N473       Cu481   2.067       .  S
N474        C475   1.338       .  A
N474       Cu480   2.054       .  S
C475        C476   1.384       .  A
C475        H478   1.081       .  S
C476        C509   1.479       .  S
C476        C477   1.388       .  A
C477        H479   1.081       .  S
Cu480       N483   2.052       .  S
Cu481       N491   2.068       .  S
Cu482       N484   2.062       .  S
Cu482       N490   2.063       .  S
N483        N484   1.321       .  A
N483        C487   1.343       .  A
N484        C485   1.342       .  A
C485        C486   1.378       .  A
C485        H488   1.082       .  S
C486        C487   1.377       .  A
C487        H489   1.082       .  S
N490        N491   1.320       .  A
N490        C494   1.343       .  A
N491        C492   1.343       .  A
C492        C493   1.389       .  A
C492        H495   1.081       .  S
C493        C531   1.485       .  S
C493        C494   1.387       .  A
C494        H496   1.081       .  S
C497        C498   1.403       .  A
C497        C502   1.406   1_545  A
C498        C499   1.389   1_554  A
C498        H511   1.078       .  S
C499        C500   1.411   1_545  A
C499        H512   1.076       .  S
C500        C506   1.424       .  A
C500        C501   1.419       .  A
C501        C503   1.400       .  A
C501        C502   1.404   1_556  A
C502        H513   1.084       .  S
C503        C504   1.391       .  A
C503        H514   1.084       .  S
C504        C505   1.400       .  A
C504        H515   1.084       .  S
C505        C506   1.421       .  A
C505        C510   1.405       .  A
C506        C507   1.411       .  A
C507        C508   1.388       .  A
C507        H516   1.076   1_565  S
C508        C509   1.400       .  A
C508        H517   1.081       .  S
C509        C510   1.403       .  A
C510        H518   1.083       .  S
C519        C520   1.405       .  A
C519        C524   1.405       .  A
C520        C521   1.398       .  A
C520        H533   1.080       .  S
C521        C522   1.414       .  A
C521        H534   1.077       .  S
C522        C528   1.430       .  A
C522        C523   1.420       .  A
C523        C525   1.399       .  A
C523        C524   1.401       .  A
C524        H535   1.084       .  S
C525        C526   1.387       .  A
C525        H536   1.084       .  S
C526        C527   1.398       .  A
C526        H537   1.084       .  S
C527        C528   1.422       .  A
C527        C532   1.402       .  A
C528        C529   1.414       .  A
C529        C530   1.397       .  A
C529        H538   1.077       .  S
C530        C531   1.403       .  A
C530        H539   1.081       .  S
C531        C532   1.402       .  A
C532        H540   1.082       .  S
C541        C542   1.401       .  A
C541        C546   1.403       .  A
C542        C543   1.388       .  A
C542        H555   1.082       .  S
C543        C544   1.411       .  A
C543        H556   1.076       .  S
C544        C550   1.426       .  A
C544        C545   1.422       .  A
C545        C547   1.401       .  A
C545        C546   1.410       .  A
C546        H557   1.084       .  S
C547        C548   1.394       .  A
C547        H558   1.084       .  S
C548        C549   1.401       .  A
C548        H559   1.084       .  S
C549        C550   1.423       .  A
C549        C554   1.409       .  A
C550        C551   1.413       .  A
C551        C552   1.388       .  A
C551        H560   1.076       .  S
C552        C553   1.399       .  A
C552        H561   1.083       .  S
C553        C554   1.401       .  A
C554        H562   1.084       .  S
C563        C564   1.405       .  A
C563        C568   1.406       .  A
C564        C565   1.397       .  A
C564        H577   1.078       .  S
C565        C566   1.414       .  A
C565        H578   1.077       .  S
C566        C572   1.430       .  A
C566        C567   1.420       .  A
C567        C569   1.399       .  A
C567        C568   1.403       .  A
C568        H579   1.085       .  S
C569        C570   1.389       .  A
C569        H580   1.084       .  S
C570        C571   1.399       .  A
C570        H581   1.084       .  S
C571        C572   1.422       .  A
C571        C576   1.405       .  A
C572        C573   1.414       .  A
C573        C574   1.396       .  A
C573        H582   1.077       .  S
C574        C575   1.401       .  A
C574        H583   1.082       .  S
C575        C576   1.402       .  A
C576        H584   1.083       .  S
C585        C586   1.401       .  A
C585        C590   1.400       .  A
C586        C587   1.393       .  A
C586        H599   1.083       .  S
C587        C588   1.414       .  A
C587        H600   1.076       .  S
C588        C594   1.427       .  A
C588        C589   1.421       .  A
C589        C591   1.400       .  A
C589        C590   1.404       .  A
C590        H601   1.076       .  S
C591        C592   1.390       .  A
C591        H602   1.084       .  S
C592        C593   1.400       .  A
C592        H603   1.084       .  S
C593        C594   1.422       .  A
C593        C598   1.406       .  A
C594        C595   1.412       .  A
C595        C596   1.392       .  A
C595        H604   1.076       .  S
C596        C597   1.401       .  A
C596        H605   1.083       .  S
C597        C598   1.401       .  A
C598        H606   1.080       .  S
C607        C608   1.404       .  A
C607        C612   1.408       .  A
C608        C609   1.395       .  A
C608        H621   1.084       .  S
C609        C610   1.413       .  A
C609        H622   1.077       .  S
C610        C616   1.428       .  A
C610        C611   1.420       .  A
C611        C613   1.400       .  A
C611        C612   1.403       .  A
C612        H623   1.077       .  S
C613        C614   1.388       .  A
C613        H624   1.084       .  S
C614        C615   1.399       .  A
C614        H625   1.084       .  S
C615        C616   1.422       .  A
C615        C620   1.403       .  A
C616        C617   1.414       .  A
C617        C618   1.396       .  A
C617        H626   1.077       .  S
C618        C619   1.400       .  A
C618        H627   1.082       .  S
C619        C620   1.401       .  A
C620        H628   1.084       .  S
C629        C630   1.402       .  A
C629        C634   1.400       .  A
C630        C631   1.391       .  A
C630        H643   1.083       .  S
C631        C632   1.412       .  A
C631        H644   1.077       .  S
C632        C638   1.426       .  A
C632        C633   1.424       .  A
C633        C635   1.398       .  A
C633        C634   1.404       .  A
C634        H645   1.084       .  S
C635        C636   1.388       .  A
C635        H646   1.084       .  S
C636        C637   1.399       .  A
C636        H647   1.084       .  S
C637        C638   1.420       .  A
C637        C642   1.399       .  A
C638        C639   1.416       .  A
C639        C640   1.395       .  A
C639        H648   1.077       .  S
C640        C641   1.397       .  A
C640        H649   1.083   1_565  S
C641        C642   1.401       .  A
C642        H650   1.084       .  S
C651        C652   1.395       .  A
C651        C656   1.397       .  A
C652        C653   1.396       .  A
C652        H665   1.084       .  S
C653        C654   1.417       .  A
C653        H666   1.077       .  S
C654        C660   1.427       .  A
C654        C655   1.422       .  A
C655        C657   1.399       .  A
C655        C656   1.401       .  A
C656        H667   1.085       .  S
C657        C658   1.389       .  A
C657        H668   1.084       .  S
C658        C659   1.399       .  A
C658        H669   1.084       .  S
C659        C660   1.423       .  A
C659        C664   1.403       .  A
C660        C661   1.414       .  A
C661        C662   1.394       .  A
C661        H670   1.077       .  S
C662        C663   1.400       .  A
C662        H671   1.082       .  S
C663        C664   1.401       .  A
C664        H672   1.084       .  S
C673        C674   1.399       .  A
C673        C678   1.404       .  A
C674        C675   1.387       .  A
C674        H687   1.083       .  S
C675        C676   1.411       .  A
C675        H688   1.076       .  S
C676        C682   1.425       .  A
C676        C677   1.422       .  A
C677        C679   1.401       .  A
C677        C678   1.410       .  A
C678        H689   1.084       .  S
C679        C680   1.394       .  A
C679        H690   1.084       .  S
C680        C681   1.401       .  A
C680        H691   1.084       .  S
C681        C682   1.422       .  A
C681        C686   1.409   1_655  A
C682        C683   1.412       .  A
C683        C684   1.387   1_655  A
C683        H692   1.076       .  S
C684        C685   1.398       .  A
C684        H693   1.084       .  S
C685        C686   1.403       .  A
C686        H694   1.084       .  S
C695        C696   1.399       .  A
C695        C700   1.398       .  A
C696        C697   1.398   1_455  A
C696        H709   1.083   1_545  S
C697        C698   1.415       .  A
C697        H710   1.078   1_545  S
C698        C704   1.430       .  A
C698        C699   1.423       .  A
C699        C701   1.398       .  A
C699        C700   1.401   1_655  A
C700        H711   1.085       .  S
C701        C702   1.387       .  A
C701        H712   1.084       .  S
C702        C703   1.399       .  A
C702        H713   1.084       .  S
C703        C704   1.422       .  A
C703        C708   1.401       .  A
C704        C705   1.416       .  A
C705        C706   1.399   1_545  A
C705        H714   1.078   1_545  S
C706        C707   1.400   1_565  A
C706        H715   1.083       .  S
C707        C708   1.401       .  A
C708        H716   1.084       .  S
C717        C718   1.406       .  A
C717        C722   1.403   1_545  A
C718        C719   1.396   1_554  A
C718        H731   1.077       .  S
C719        C720   1.413       .  A
C719        H732   1.077       .  S
C720        C726   1.428       .  A
C720        C721   1.420   1_545  A
C721        C723   1.398       .  A
C721        C722   1.399   1_556  A
C722        H733   1.085       .  S
C723        C724   1.387       .  A
C723        H734   1.084       .  S
C724        C725   1.399       .  A
C724        H735   1.084       .  S
C725        C726   1.422   1_565  A
C725        C730   1.401       .  A
C726        C727   1.414       .  A
C727        C728   1.396       .  A
C727        H736   1.077       .  S
C728        C729   1.402       .  A
C728        H737   1.082       .  S
C729        C730   1.401   1_545  A
C730        H738   1.082       .  S
C739        C740   1.401       .  A
C739        C744   1.396       .  A
C740        C741   1.400       .  A
C740        H753   1.083       .  S
C741        C742   1.416       .  A
C741        H754   1.077       .  S
C742        C748   1.429       .  A
C742        C743   1.423       .  A
C743        C745   1.396       .  A
C743        C744   1.396       .  A
C744        H755   1.084       .  S
C745        C746   1.383       .  A
C745        H756   1.084       .  S
C746        C747   1.397       .  A
C746        H757   1.084       .  S
C747        C748   1.421       .  A
C747        C752   1.396       .  A
C748        C749   1.417       .  A
C749        C750   1.401       .  A
C749        H758   1.078       .  S
C750        C751   1.402       .  A
C750        H759   1.083       .  S
C751        C752   1.399       .  A
C752        H760   1.084       .  S
C761        C762   1.400       .  A
C761        C766   1.403       .  A
C762        C763   1.400       .  A
C762        H775   1.078       .  S
C763        C764   1.416       .  A
C763        H776   1.077       .  S
C764        C770   1.430       .  A
C764        C765   1.420       .  A
C765        C767   1.399       .  A
C765        C766   1.400       .  A
C766        H777   1.084       .  S
C767        C768   1.387       .  A
C767        H778   1.084       .  S
C768        C769   1.398       .  A
C768        H779   1.084       .  S
C769        C770   1.422       .  A
C769        C774   1.402   1_655  A
C770        C771   1.413       .  A
C771        C772   1.398   1_655  A
C771        H780   1.077       .  S
C772        C773   1.401       .  A
C772        H781   1.076       .  S
C773        C774   1.402       .  A
C774        H782   1.084       .  S
C783        C784   1.401       .  A
C783        C788   1.405       .  A
C784        C785   1.394       .  A
C784        H797   1.082       .  S
C785        C786   1.414       .  A
C785        H798   1.077       .  S
C786        C792   1.429       .  A
C786        C787   1.421       .  A
C787        C789   1.401       .  A
C787        C788   1.408       .  A
C788        H799   1.083       .  S
C789        C790   1.393       .  A
C789        H800   1.084       .  S
C790        C791   1.401       .  A
C790        H801   1.084       .  S
C791        C792   1.420       .  A
C791        C796   1.410       .  A
C792        C793   1.409       .  A
C793        C794   1.393       .  A
C793        H802   1.077       .  S
C794        C795   1.409       .  A
C794        H803   1.074       .  S
C795        C796   1.408       .  A
C796        H804   1.084       .  S
C805        C806   1.400       .  A
C805        C810   1.402       .  A
C806        C807   1.393       .  A
C806        H819   1.083       .  S
C807        C808   1.413       .  A
C807        H820   1.077       .  S
C808        C814   1.427       .  A
C808        C809   1.422       .  A
C809        C811   1.400       .  A
C809        C810   1.406       .  A
C810        H821   1.084       .  S
C811        C812   1.391       .  A
C811        H822   1.084       .  S
C812        C813   1.400       .  A
C812        H823   1.084       .  S
C813        C814   1.423       .  A
C813        C818   1.405       .  A
C814        C815   1.416       .  A
C815        C816   1.395       .  A
C815        H824   1.077       .  S
C816        C817   1.396       .  A
C816        H825   1.084       .  S
C817        C818   1.399       .  A
C818        H826   1.085       .  S
C827        C828   1.400       .  A
C827        C832   1.402       .  A
C828        C829   1.400       .  A
C828        H841   1.080       .  S
C829        C830   1.416       .  A
C829        H842   1.078       .  S
C830        C836   1.431       .  A
C830        C831   1.422       .  A
C831        C833   1.398       .  A
C831        C832   1.400       .  A
C832        H843   1.084       .  S
C833        C834   1.386       .  A
C833        H844   1.084       .  S
C834        C835   1.398   1_655  A
C834        H845   1.084   1_655  S
C835        C836   1.422   1_455  A
C835        C840   1.400       .  A
C836        C837   1.417   1_655  A
C837        C838   1.401       .  A
C837        H846   1.078   1_455  S
C838        C839   1.397       .  A
C838        H847   1.081       .  S
C839        C840   1.398       .  A
C840        H848   1.085       .  S
C849        C850   1.398       .  A
C849        C854   1.401       .  A
C850        C851   1.393       .  A
C850        H863   1.083       .  S
C851        C852   1.415       .  A
C851        H864   1.077       .  S
C852        C858   1.426       .  A
C852        C853   1.421       .  A
C853        C855   1.399       .  A
C853        C854   1.402       .  A
C854        H865   1.084       .  S
C855        C856   1.389       .  A
C855        H866   1.084       .  S
C856        C857   1.399       .  A
C856        H867   1.084       .  S
C857        C858   1.422       .  A
C857        C862   1.403       .  A
C858        C859   1.412       .  A
C859        C860   1.392       .  A
C859        H868   1.077       .  S
C860        C861   1.401       .  A
C860        H869   1.081       .  S
C861        C862   1.402       .  A
C862        H870   1.084       .  S
C871        C872   1.401       .  A
C871        C876   1.403       .  A
C872        C873   1.392       .  A
C872        H885   1.081       .  S
C873        C874   1.412       .  A
C873        H886   1.077       .  S
C874        C880   1.426       .  A
C874        C875   1.421       .  A
C875        C877   1.399       .  A
C875        C876   1.402       .  A
C876        H887   1.082       .  S
C877        C878   1.388       .  A
C877        H888   1.084       .  S
C878        C879   1.400       .  A
C878        H889   1.084       .  S
C879        C880   1.420       .  A
C879        C884   1.403       .  A
C880        C881   1.412       .  A
C881        C882   1.392       .  A
C881        H890   1.077       .  S
C882        C883   1.403       .  A
C882        H891   1.084       .  S
C883        C884   1.406       .  A
C884        H892   1.078       .  S
C893        C894   1.399       .  A
C893        C898   1.396       .  A
C894        C895   1.394       .  A
C894        H907   1.084       .  S
C895        C896   1.415       .  A
C895        H908   1.077       .  S
C896        C902   1.427       .  A
C896        C897   1.423       .  A
C897        C899   1.399       .  A
C897        C898   1.402       .  A
C898        H909   1.081       .  S
C899        C900   1.389       .  A
C899        H910   1.084       .  S
C900        C901   1.399       .  A
C900        H911   1.084       .  S
C901        C902   1.423       .  A
C901        C906   1.403   1_655  A
C902        C903   1.414       .  A
C903        C904   1.394   1_655  A
C903        H912   1.077       .  S
C904        C905   1.399       .  A
C904        H913   1.084       .  S
C905        C906   1.396       .  A
C906        H914   1.080       .  S
C915        C916   1.403       .  A
C915        C920   1.405       .  A
C916        C917   1.393       .  A
C916        H929   1.076       .  S
C917        C918   1.411       .  A
C917        H930   1.077       .  S
C918        C924   1.427       .  A
C918        C919   1.420       .  A
C919        C921   1.400       .  A
C919        C920   1.405       .  A
C920        H931   1.083       .  S
C921        C922   1.390       .  A
C921        H932   1.084       .  S
C922        C923   1.400       .  A
C922        H933   1.084       .  S
C923        C924   1.422       .  A
C923        C928   1.404       .  A
C924        C925   1.414       .  A
C925        C926   1.394       .  A
C925        H934   1.077       .  S
C926        C927   1.397       .  A
C926        H935   1.078       .  S
C927        C928   1.402       .  A
C928        H936   1.084       .  S
C937        C938   1.405       .  A
C937        C942   1.404       .  A
C938        C939   1.396       .  A
C938        H951   1.077       .  S
C939        C940   1.413       .  A
C939        H952   1.077       .  S
C940        C946   1.427       .  A
C940        C941   1.420       .  A
C941        C943   1.398       .  A
C941        C942   1.398       .  A
C942        H953   1.085       .  S
C943        C944   1.387       .  A
C943        H954   1.084       .  S
C944        C945   1.398       .  A
C944        H955   1.084       .  S
C945        C946   1.422       .  A
C945        C950   1.400       .  A
C946        C947   1.415       .  A
C947        C948   1.396       .  A
C947        H956   1.077       .  S
C948        C949   1.398       .  A
C948        H957   1.083       .  S
C949        C950   1.400       .  A
C950        H958   1.084       .  S
C959        C960   1.398       .  A
C959        C964   1.396       .  A
C960        C961   1.397       .  A
C960        H973   1.084       .  S
C961        C962   1.415       .  A
C961        H974   1.077       .  S
C962        C968   1.428       .  A
C962        C963   1.423       .  A
C963        C965   1.398       .  A
C963        C964   1.401       .  A
C964        H975   1.085       .  S
C965        C966   1.387       .  A
C965        H976   1.084       .  S
C966        C967   1.399       .  A
C966        H977   1.084       .  S
C967        C968   1.420       .  A
C967        C972   1.399       .  A
C968        C969   1.415       .  A
C969        C970   1.398       .  A
C969        H978   1.077       .  S
C970        C971   1.401       .  A
C970        H979   1.079       .  S
C971        C972   1.404       .  A
C972        H980   1.083       .  S
C981        C982   1.396       .  A
C981        C986   1.395       .  A
C982        C983   1.396       .  A
C982        H995   1.084       .  S
C983        C984   1.416       .  A
C983        H996   1.077       .  S
C984        C990   1.426       .  A
C984        C985   1.423       .  A
C985        C987   1.397       .  A
C985        C986   1.398       .  A
C986        H997   1.085       .  S
C987        C988   1.386       .  A
C987        H998   1.084       .  S
C988        C989   1.399       .  A
C988        H999   1.084       .  S
C989        C990   1.421       .  A
C989        C994   1.397       .  A
C990        C991   1.415       .  A
C991        C992   1.397       .  A
C991       H1000   1.077       .  S
C992        C993   1.400       .  A
C992       H1001   1.083       .  S
C993        C994   1.401       .  A
C994       H1002   1.083       .  S
C1003      C1004   1.395       .  A
C1003      C1008   1.401       .  A
C1004      C1005   1.393       .  A
C1004      H1017   1.084       .  S
C1005      C1006   1.415       .  A
C1005      H1018   1.076       .  S
C1006      C1012   1.428       .  A
C1006      C1007   1.423       .  A
C1007      C1009   1.401       .  A
C1007      C1008   1.408       .  A
C1008      H1019   1.085       .  S
C1009      C1010   1.393       .  A
C1009      H1020   1.084       .  S
C1010      C1011   1.401       .  A
C1010      H1021   1.084       .  S
C1011      C1012   1.423       .  A
C1011      C1016   1.409       .  A
C1012      C1013   1.413       .  A
C1013      C1014   1.391       .  A
C1013      H1022   1.076       .  S
C1014      C1015   1.400       .  A
C1014      H1023   1.083       .  S
C1015      C1016   1.401       .  A
C1016      H1024   1.082       .  S
C1025      C1026   1.396       .  A
C1025      C1030   1.396       .  A
C1026      C1027   1.398       .  A
C1026      H1039   1.083       .  S
C1027      C1028   1.417       .  A
C1027      H1040   1.078       .  S
C1028      C1034   1.427       .  A
C1028      C1029   1.422       .  A
C1029      C1031   1.398       .  A
C1029      C1030   1.398       .  A
C1030      H1041   1.085       .  S
C1031      C1032   1.387       .  A
C1031      H1042   1.084       .  S
C1032      C1033   1.399       .  A
C1032      H1043   1.084       .  S
C1033      C1034   1.421       .  A
C1033      C1038   1.401       .  A
C1034      C1035   1.412       .  A
C1035      C1036   1.396       .  A
C1035      H1044   1.078       .  S
C1036      C1037   1.405       .  A
C1036      H1045   1.081       .  S
C1037      C1038   1.403       .  A
C1038      H1046   1.081       .  S
C1047      C1048   1.398       .  A
C1047      C1052   1.403       .  A
C1048      C1049   1.389   1_455  A
C1048      H1061   1.083       .  S
C1049      C1050   1.413       .  A
C1049      H1062   1.076       .  S
C1050      C1056   1.423       .  A
C1050      C1051   1.421       .  A
C1051      C1053   1.400       .  A
C1051      C1052   1.404   1_655  A
C1052      H1063   1.084       .  S
C1053      C1054   1.391       .  A
C1053      H1064   1.084       .  S
C1054      C1055   1.400       .  A
C1054      H1065   1.084       .  S
C1055      C1056   1.421       .  A
C1055      C1060   1.405       .  A
C1056      C1057   1.412       .  A
C1057      C1058   1.389       .  A
C1057      H1066   1.076       .  S
C1058      C1059   1.399       .  A
C1058      H1067   1.083       .  S
C1059      C1060   1.403       .  A
C1060      H1068   1.084       .  S
C1069      C1070   1.407       .  A
C1069      C1074   1.407       .  A
C1070      C1071   1.394       .  A
C1070      H1083   1.075       .  S
C1071      C1072   1.410       .  A
C1071      H1084   1.077       .  S
C1072      C1078   1.428       .  A
C1072      C1073   1.420       .  A
C1073      C1075   1.400       .  A
C1073      C1074   1.406       .  A
C1074      H1085   1.085       .  S
C1075      C1076   1.391       .  A
C1075      H1086   1.084       .  S
C1076      C1077   1.400       .  A
C1076      H1087   1.084       .  S
C1077      C1078   1.421       .  A
C1077      C1082   1.404       .  A
C1078      C1079   1.416       .  A
C1079      C1080   1.395       .  A
C1079      H1088   1.077       .  S
C1080      C1081   1.398       .  A
C1080      H1089   1.083       .  S
C1081      C1082   1.402       .  A
C1082      H1090   1.084       .  S
C1091      C1092   1.406       .  A
C1091      C1096   1.408       .  A
C1092      C1093   1.393       .  A
C1092      H1105   1.075       .  S
C1093      C1094   1.412       .  A
C1093      H1106   1.077       .  S
C1094      C1100   1.428       .  A
C1094      C1095   1.419       .  A
C1095      C1097   1.401       .  A
C1095      C1096   1.406       .  A
C1096      H1107   1.085       .  S
C1097      C1098   1.393       .  A
C1097      H1108   1.084       .  S
C1098      C1099   1.401       .  A
C1098      H1109   1.084       .  S
C1099      C1100   1.422       .  A
C1099      C1104   1.409       .  A
C1100      C1101   1.411       .  A
C1101      C1102   1.391       .  A
C1101      H1110   1.077       .  S
C1102      C1103   1.402       .  A
C1102      H1111   1.081       .  S
C1103      C1104   1.405       .  A
C1104      H1112   1.083       .  S
C1113      C1114   1.398       .  A
C1113      C1118   1.403       .  A
C1114      C1115   1.389       .  A
C1114      H1127   1.084       .  S
C1115      C1116   1.413       .  A
C1115      H1128   1.076       .  S
C1116      C1122   1.429       .  A
C1116      C1117   1.423       .  A
C1117      C1119   1.402       .  A
C1117      C1118   1.412       .  A
C1118      H1129   1.083       .  S
C1119      C1120   1.395       .  A
C1119      H1130   1.084       .  S
C1120      C1121   1.402       .  A
C1120      H1131   1.084       .  S
C1121      C1122   1.423       .  A
C1121      C1126   1.413       .  A
C1122      C1123   1.412       .  A
C1123      C1124   1.389       .  A
C1123      H1132   1.076       .  S
C1124      C1125   1.400       .  A
C1124      H1133   1.083       .  S
C1125      C1126   1.404       .  A
C1126      H1134   1.084       .  S
C1135      C1136   1.407   1_545  A
C1135      C1140   1.405       .  A
C1136      C1137   1.397       .  A
C1136      H1149   1.077   1_565  S
C1137      C1138   1.413       .  A
C1137      H1150   1.077       .  S
C1138      C1144   1.430       .  A
C1138      C1139   1.420       .  A
C1139      C1141   1.399       .  A
C1139      C1140   1.403   1_565  A
C1140      H1151   1.085       .  S
C1141      C1142   1.389       .  A
C1141      H1152   1.084       .  S
C1142      C1143   1.399       .  A
C1142      H1153   1.084       .  S
C1143      C1144   1.422       .  A
C1143      C1148   1.404       .  A
C1144      C1145   1.415       .  A
C1145      C1146   1.397       .  A
C1145      H1154   1.077       .  S
C1146      C1147   1.401       .  A
C1146      H1155   1.082       .  S
C1147      C1148   1.402       .  A
C1148      H1156   1.083       .  S
C1157      C1158   1.403       .  A
C1157      C1162   1.402       .  A
C1158      C1159   1.394       .  A
C1158      H1171   1.082       .  S
C1159      C1160   1.413       .  A
C1159      H1172   1.077       .  S
C1160      C1166   1.428       .  A
C1160      C1161   1.421       .  A
C1161      C1163   1.400       .  A
C1161      C1162   1.405       .  A
C1162      H1173   1.078       .  S
C1163      C1164   1.391       .  A
C1163      H1174   1.084       .  S
C1164      C1165   1.400       .  A
C1164      H1175   1.084       .  S
C1165      C1166   1.422       .  A
C1165      C1170   1.406       .  A
C1166      C1167   1.414       .  A
C1167      C1168   1.394       .  A
C1167      H1176   1.077       .  S
C1168      C1169   1.400       .  A
C1168      H1177   1.083       .  S
C1169      C1170   1.400       .  A
C1170      H1178   1.079       .  S
C1179      C1180   1.404       .  A
C1179      C1184   1.406       .  A
C1180      C1181   1.393       .  A
C1180      H1193   1.076       .  S
C1181      C1182   1.412       .  A
C1181      H1194   1.077       .  S
C1182      C1188   1.426       .  A
C1182      C1183   1.419       .  A
C1183      C1185   1.399       .  A
C1183      C1184   1.401       .  A
C1184      H1195   1.085       .  S
C1185      C1186   1.389       .  A
C1185      H1196   1.084       .  S
C1186      C1187   1.399       .  A
C1186      H1197   1.084       .  S
C1187      C1188   1.422       .  A
C1187      C1192   1.403       .  A
C1188      C1189   1.413       .  A
C1189      C1190   1.392       .  A
C1189      H1198   1.077       .  S
C1190      C1191   1.400       .  A
C1190      H1199   1.082       .  S
C1191      C1192   1.402       .  A
C1192      H1200   1.083       .  S
C1201      C1202   1.398       .  A
C1201      C1206   1.395       .  A
C1202      C1203   1.397       .  A
C1202      H1215   1.084       .  S
C1203      C1204   1.415       .  A
C1203      H1216   1.078       .  S
C1204      C1210   1.429       .  A
C1204      C1205   1.424       .  A
C1205      C1207   1.397       .  A
C1205      C1206   1.402       .  A
C1206      H1217   1.085       .  S
C1207      C1208   1.387       .  A
C1207      H1218   1.084       .  S
C1208      C1209   1.399       .  A
C1208      H1219   1.084       .  S
C1209      C1210   1.421       .  A
C1209      C1214   1.399       .  A
C1210      C1211   1.417       .  A
C1211      C1212   1.400       .  A
C1211      H1220   1.078       .  S
C1212      C1213   1.399       .  A
C1212      H1221   1.083       .  S
C1213      C1214   1.402       .  A
C1214      H1222   1.084   1_556  S
C1223      C1224   1.395       .  A
C1223      C1228   1.396       .  A
C1224      C1225   1.395       .  A
C1224      H1237   1.084       .  S
C1225      C1226   1.416       .  A
C1225      H1238   1.078       .  S
C1226      C1232   1.423       .  A
C1226      C1227   1.421       .  A
C1227      C1229   1.398       .  A
C1227      C1228   1.398       .  A
C1228      H1239   1.085       .  S
C1229      C1230   1.388       .  A
C1229      H1240   1.084       .  S
C1230      C1231   1.399       .  A
C1230      H1241   1.084       .  S
C1231      C1232   1.421       .  A
C1231      C1236   1.400       .  A
C1232      C1233   1.411       .  A
C1233      C1234   1.393       .  A
C1233      H1242   1.078       .  S
C1234      C1235   1.404       .  A
C1234      H1243   1.082       .  S
C1235      C1236   1.402       .  A
C1236      H1244   1.082       .  S
C1245      C1246   1.400       .  A
C1245      C1250   1.399   1_565  A
C1246      C1247   1.391       .  A
C1246      H1259   1.083       .  S
C1247      C1248   1.413       .  A
C1247      H1260   1.077       .  S
C1248      C1254   1.424       .  A
C1248      C1249   1.422   1_565  A
C1249      C1251   1.398       .  A
C1249      C1250   1.399       .  A
C1250      H1261   1.085       .  S
C1251      C1252   1.387       .  A
C1251      H1262   1.084       .  S
C1252      C1253   1.398       .  A
C1252      H1263   1.084       .  S
C1253      C1254   1.421   1_545  A
C1253      C1258   1.398       .  A
C1254      C1255   1.414       .  A
C1255      C1256   1.393       .  A
C1255      H1264   1.077       .  S
C1256      C1257   1.399       .  A
C1256      H1265   1.083       .  S
C1257      C1258   1.400   1_565  A
C1258      H1266   1.084       .  S
C1267      C1268   1.398       .  A
C1267      C1272   1.401       .  A
C1268      C1269   1.400       .  A
C1268      H1281   1.083       .  S
C1269      C1270   1.417       .  A
C1269      H1282   1.077       .  S
C1270      C1276   1.431       .  A
C1270      C1271   1.422       .  A
C1271      C1273   1.399       .  A
C1271      C1272   1.402       .  A
C1272      H1283   1.085       .  S
C1273      C1274   1.388       .  A
C1273      H1284   1.084   1_545  S
C1274      C1275   1.399       .  A
C1274      H1285   1.084   1_545  S
C1275      C1276   1.423       .  A
C1275      C1280   1.404       .  A
C1276      C1277   1.416       .  A
C1277      C1278   1.399       .  A
C1277      H1286   1.077       .  S
C1278      C1279   1.400       .  A
C1278      H1287   1.083       .  S
C1279      C1280   1.401       .  A
C1280      H1288   1.084       .  S
C1289      C1290   1.403       .  A
C1289      C1294   1.401       .  A
C1290      C1291   1.396       .  A
C1290      H1303   1.081       .  S
C1291      C1292   1.413       .  A
C1291      H1304   1.077       .  S
C1292      C1298   1.431       .  A
C1292      C1293   1.423       .  A
C1293      C1295   1.398       .  A
C1293      C1294   1.405       .  A
C1294      H1305   1.083       .  S
C1295      C1296   1.389       .  A
C1295      H1306   1.084       .  S
C1296      C1297   1.401       .  A
C1296      H1307   1.084       .  S
C1297      C1298   1.419       .  A
C1297      C1302   1.404       .  A
C1298      C1299   1.415       .  A
C1299      C1300   1.398   1_565  A
C1299      H1308   1.077       .  S
C1300      C1301   1.404       .  A
C1300      H1309   1.083       .  S
C1301      C1302   1.409   1_545  A
C1302      H1310   1.077       .  S
C1311      C1312   1.402   1_554  A
C1311      C1316   1.403   1_554  A
C1312      C1313   1.396       .  A
C1312      H1325   1.083   1_556  S
C1313      C1314   1.414       .  A
C1313      H1326   1.077       .  S
C1314      C1320   1.430       .  A
C1314      C1315   1.422       .  A
C1315      C1317   1.400       .  A
C1315      C1316   1.407       .  A
C1316      H1327   1.083       .  S
C1317      C1318   1.392       .  A
C1317      H1328   1.084       .  S
C1318      C1319   1.400       .  A
C1318      H1329   1.084       .  S
C1319      C1320   1.424       .  A
C1319      C1324   1.408       .  A
C1320      C1321   1.415       .  A
C1321      C1322   1.395       .  A
C1321      H1330   1.077       .  S
C1322      C1323   1.396       .  A
C1322      H1331   1.084       .  S
C1323      C1324   1.399       .  A
C1324      H1332   1.085       .  S
C1333      C1334   1.399       .  A
C1333      C1338   1.401       .  A
C1334      C1335   1.390       .  A
C1334      H1347   1.083       .  S
C1335      C1336   1.413       .  A
C1335      H1348   1.076       .  S
C1336      C1342   1.426       .  A
C1336      C1337   1.422       .  A
C1337      C1339   1.400       .  A
C1337      C1338   1.406       .  A
C1338      H1349   1.084       .  S
C1339      C1340   1.391       .  A
C1339      H1350   1.084       .  S
C1340      C1341   1.400       .  A
C1340      H1351   1.084       .  S
C1341      C1342   1.422       .  A
C1341      C1346   1.405       .  A
C1342      C1343   1.414       .  A
C1343      C1344   1.391       .  A
C1343      H1352   1.076       .  S
C1344      C1345   1.399       .  A
C1344      H1353   1.084       .  S
C1345      C1346   1.399       .  A
C1346      H1354   1.079       .  S
C1355      C1356   1.401       .  A
C1355      C1360   1.402       .  A
C1356      C1357   1.392       .  A
C1356      H1369   1.083       .  S
C1357      C1358   1.412       .  A
C1357      H1370   1.077       .  S
C1358      C1364   1.428       .  A
C1358      C1359   1.423       .  A
C1359      C1361   1.400       .  A
C1359      C1360   1.407       .  A
C1360      H1371   1.084       .  S
C1361      C1362   1.391       .  A
C1361      H1372   1.084       .  S
C1362      C1363   1.400       .  A
C1362      H1373   1.084       .  S
C1363      C1364   1.419       .  A
C1363      C1368   1.403       .  A
C1364      C1365   1.413       .  A
C1365      C1366   1.395       .  A
C1365      H1374   1.077       .  S
C1366      C1367   1.405       .  A
C1366      H1375   1.077       .  S
C1367      C1368   1.406       .  A
C1368      H1376   1.085       .  S
C1377      C1378   1.402       .  A
C1377      C1382   1.402       .  A
C1378      C1379   1.397       .  A
C1378      H1391   1.082       .  S
C1379      C1380   1.414       .  A
C1379      H1392   1.077       .  S
C1380      C1386   1.430       .  A
C1380      C1381   1.422       .  A
C1381      C1383   1.399       .  A
C1381      C1382   1.403       .  A
C1382      H1393   1.082       .  S
C1383      C1384   1.388       .  A
C1383      H1394   1.084       .  S
C1384      C1385   1.399       .  A
C1384      H1395   1.084       .  S
C1385      C1386   1.421       .  A
C1385      C1390   1.403       .  A
C1386      C1387   1.416       .  A
C1387      C1388   1.399       .  A
C1387      H1396   1.077       .  S
C1388      C1389   1.400       .  A
C1388      H1397   1.083       .  S
C1389      C1390   1.403       .  A
C1390      H1398   1.084       .  S
C1399      C1400   1.399       .  A
C1399      C1404   1.399       .  A
C1400      C1401   1.398       .  A
C1400      H1413   1.083       .  S
C1401      C1402   1.416       .  A
C1401      H1414   1.077       .  S
C1402      C1408   1.429       .  A
C1402      C1403   1.422       .  A
C1403      C1405   1.398       .  A
C1403      C1404   1.399       .  A
C1404      H1415   1.084       .  S
C1405      C1406   1.386       .  A
C1405      H1416   1.084       .  S
C1406      C1407   1.398       .  A
C1406      H1417   1.084       .  S
C1407      C1408   1.422       .  A
C1407      C1412   1.399       .  A
C1408      C1409   1.416       .  A
C1409      C1410   1.398       .  A
C1409      H1418   1.077       .  S
C1410      C1411   1.400       .  A
C1410      H1419   1.083       .  S
C1411      C1412   1.399       .  A
C1412      H1420   1.084       .  S
C1421      C1422   1.400       .  A
C1421      C1426   1.405       .  A
C1422      C1423   1.392       .  A
C1422      H1435   1.083       .  S
C1423      C1424   1.414       .  A
C1423      H1436   1.076       .  S
C1424      C1430   1.431       .  A
C1424      C1425   1.422       .  A
C1425      C1427   1.402       .  A
C1425      C1426   1.414       .  A
C1426      H1437   1.084       .  S
C1427      C1428   1.396       .  A
C1427      H1438   1.084       .  S
C1428      C1429   1.402       .  A
C1428      H1439   1.084       .  S
C1429      C1430   1.423       .  A
C1429      C1434   1.415       .  A
C1430      C1431   1.412       .  A
C1431      C1432   1.391       .  A
C1431      H1440   1.076       .  S
C1432      C1433   1.402       .  A
C1432      H1441   1.083       .  S
C1433      C1434   1.406       .  A
C1434      H1442   1.084       .  S
C1443      C1444   1.406       .  A
C1443      C1448   1.405       .  A
C1444      C1445   1.395       .  A
C1444      H1457   1.083       .  S
C1445      C1446   1.412       .  A
C1445      H1458   1.077       .  S
C1446      C1452   1.431       .  A
C1446      C1447   1.422       .  A
C1447      C1449   1.399       .  A
C1447      C1448   1.405       .  A
C1448      H1459   1.078       .  S
C1449      C1450   1.388       .  A
C1449      H1460   1.084       .  S
C1450      C1451   1.398       .  A
C1450      H1461   1.084       .  S
C1451      C1452   1.421       .  A
C1451      C1456   1.401       .  A
C1452      C1453   1.416       .  A
C1453      C1454   1.398       .  A
C1453      H1462   1.077       .  S
C1454      C1455   1.401       .  A
C1454      H1463   1.082       .  S
C1455      C1456   1.401       .  A
C1456      H1464   1.084       .  S
C1465      C1466   1.401       .  A
C1465      C1470   1.401       .  A
C1466      C1467   1.398       .  A
C1466      H1479   1.082       .  S
C1467      C1468   1.415       .  A
C1467      H1480   1.077       .  S
C1468      C1474   1.430       .  A
C1468      C1469   1.422       .  A
C1469      C1471   1.399       .  A
C1469      C1470   1.401       .  A
C1470      H1481   1.084       .  S
C1471      C1472   1.387       .  A
C1471      H1482   1.084       .  S
C1472      C1473   1.398       .  A
C1472      H1483   1.084       .  S
C1473      C1474   1.422       .  A
C1473      C1478   1.401       .  A
C1474      C1475   1.416       .  A
C1475      C1476   1.399       .  A
C1475      H1484   1.077       .  S
C1476      C1477   1.397       .  A
C1476      H1485   1.078       .  S
C1477      C1478   1.400       .  A
C1478      H1486   1.085       .  S
C1487      C1488   1.400       .  A
C1487      C1492   1.400       .  A
C1488      C1489   1.386       .  A
C1488      H1501   1.084       .  S
C1489      C1490   1.410       .  A
C1489      H1502   1.077       .  S
C1490      C1496   1.424       .  A
C1490      C1491   1.423       .  A
C1491      C1493   1.400       .  A
C1491      C1492   1.409       .  A
C1492      H1503   1.084       .  S
C1493      C1494   1.393       .  A
C1493      H1504   1.084       .  S
C1494      C1495   1.401       .  A
C1494      H1505   1.084       .  S
C1495      C1496   1.421       .  A
C1495      C1500   1.406       .  A
C1496      C1497   1.414       .  A
C1497      C1498   1.389       .  A
C1497      H1506   1.077       .  S
C1498      C1499   1.398       .  A
C1498      H1507   1.083       .  S
C1499      C1500   1.400       .  A
C1500      H1508   1.083       .  S
C1509      C1510   1.405       .  A
C1509      C1514   1.403       .  A
C1510      C1511   1.395       .  A
C1510      H1523   1.077       .  S
C1511      C1512   1.412       .  A
C1511      H1524   1.077       .  S
C1512      C1518   1.427       .  A
C1512      C1513   1.420       .  A
C1513      C1515   1.398       .  A
C1513      C1514   1.398       .  A
C1514      H1525   1.085       .  S
C1515      C1516   1.386       .  A
C1515      H1526   1.084       .  S
C1516      C1517   1.398       .  A
C1516      H1527   1.084       .  S
C1517      C1518   1.421       .  A
C1517      C1522   1.398       .  A
C1518      C1519   1.416       .  A
C1519      C1520   1.397       .  A
C1519      H1528   1.077       .  S
C1520      C1521   1.399       .  A
C1520      H1529   1.083       .  S
C1521      C1522   1.400       .  A
C1522      H1530   1.083       .  S
C1531      C1532   1.400       .  A
C1531      C1536   1.402       .  A
C1532      C1533   1.398       .  A
C1532      H1545   1.083       .  S
C1533      C1534   1.417       .  A
C1533      H1546   1.077       .  S
C1534      C1540   1.429       .  A
C1534      C1535   1.421       .  A
C1535      C1537   1.399       .  A
C1535      C1536   1.400       .  A
C1536      H1547   1.084       .  S
C1537      C1538   1.388       .  A
C1537      H1548   1.084       .  S
C1538      C1539   1.398       .  A
C1538      H1549   1.084       .  S
C1539      C1540   1.424       .  A
C1539      C1544   1.404       .  A
C1540      C1541   1.413       .  A
C1541      C1542   1.395       .  A
C1541      H1550   1.077       .  S
C1542      C1543   1.401       .  A
C1542      H1551   1.083       .  S
C1543      C1544   1.396       .  A
C1544      H1552   1.084       .  S
C1553      C1554   1.397       .  A
C1553      C1558   1.396       .  A
C1554      C1555   1.399       .  A
C1554      H1567   1.084       .  S
C1555      C1556   1.416       .  A
C1555      H1568   1.078       .  S
C1556      C1562   1.428       .  A
C1556      C1557   1.423       .  A
C1557      C1559   1.398       .  A
C1557      C1558   1.400       .  A
C1558      H1569   1.085       .  S
C1559      C1560   1.386       .  A
C1559      H1570   1.084       .  S
C1560      C1561   1.399       .  A
C1560      H1571   1.084       .  S
C1561      C1562   1.422       .  A
C1561      C1566   1.398       .  A
C1562      C1563   1.417       .  A
C1563      C1564   1.399       .  A
C1563      H1572   1.078       .  S
C1564      C1565   1.399       .  A
C1564      H1573   1.083       .  S
C1565      C1566   1.400       .  A
C1566      H1574   1.085       .  S
C1575      C1576   1.401       .  A
C1575      C1580   1.401       .  A
C1576      C1577   1.400       .  A
C1576      H1589   1.083       .  S
C1577      C1578   1.417       .  A
C1577      H1590   1.078       .  S
C1578      C1584   1.431       .  A
C1578      C1579   1.422       .  A
C1579      C1581   1.398       .  A
C1579      C1580   1.400       .  A
C1580      H1591   1.084       .  S
C1581      C1582   1.386       .  A
C1581      H1592   1.084       .  S
C1582      C1583   1.397       .  A
C1582      H1593   1.084       .  S
C1583      C1584   1.423       .  A
C1583      C1588   1.400       .  A
C1584      C1585   1.416       .  A
C1585      C1586   1.400       .  A
C1585      H1594   1.078       .  S
C1586      C1587   1.402       .  A
C1586      H1595   1.083       .  S
C1587      C1588   1.397       .  A
C1588      H1596   1.082       .  S
C1597      C1598   1.397       .  A
C1597      C1602   1.400       .  A
C1598      C1599   1.394       .  A
C1598      H1611   1.084       .  S
C1599      C1600   1.415       .  A
C1599      H1612   1.078       .  S
C1600      C1606   1.426       .  A
C1600      C1601   1.422       .  A
C1601      C1603   1.401       .  A
C1601      C1602   1.406       .  A
C1602      H1613   1.085       .  S
C1603      C1604   1.393       .  A
C1603      H1614   1.084       .  S
C1604      C1605   1.400       .  A
C1604      H1615   1.084       .  S
C1605      C1606   1.421       .  A
C1605      C1610   1.408       .  A
C1606      C1607   1.411       .  A
C1607      C1608   1.392       .  A
C1607      H1616   1.078       .  S
C1608      C1609   1.403       .  A
C1608      H1617   1.083       .  S
C1609      C1610   1.404       .  A
C1610      H1618   1.083       .  S
C1619      C1620   1.398       .  A
C1619      C1624   1.401       .  A
C1620      C1621   1.391       .  A
C1620      H1633   1.084       .  S
C1621      C1622   1.413       .  A
C1621      H1634   1.077       .  S
C1622      C1628   1.426       .  A
C1622      C1623   1.423       .  A
C1623      C1625   1.400       .  A
C1623      C1624   1.407       .  A
C1624      H1635   1.084       .  S
C1625      C1626   1.392       .  A
C1625      H1636   1.084       .  S
C1626      C1627   1.400       .  A
C1626      H1637   1.084       .  S
C1627      C1628   1.422       .  A
C1627      C1632   1.406       .  A
C1628      C1629   1.414       .  A
C1629      C1630   1.391       .  A
C1629      H1638   1.077       .  S
C1630      C1631   1.398       .  A
C1630      H1639   1.084       .  S
C1631      C1632   1.401       .  A
C1632      H1640   1.084       .  S
