geometry optimzed in LAMMPS
_audit_creation_date              2020-12-01 
_audit_creation_method            'lammps2cif' 
_symmetry_space_group_name_H-M    'P1' 
_symmetry_Int_Tables_number       1 
_symmetry_cell_setting            triclinic 
loop_ 
_symmetry_equiv_pos_as_xyz 
  x,y,z 
_cell_length_a                    38.0942771 
_cell_length_b                    35.015295629130705 
_cell_length_c                    33.80305952873888 
_cell_angle_alpha                 88.92388182096643 
_cell_angle_beta                  100.12124000937123 
_cell_angle_gamma                 91.9662677864968 
loop_ 
_atom_site_label 
_atom_site_type_symbol 
_atom_site_fract_x 
_atom_site_fract_y 
_atom_site_fract_z 
_atom_site_charge 
C1          C  0.99532695  0.00625284  0.45123790     0.30500
C2          C  0.97370503  0.32835610  0.37125176     0.30500
C3          C  0.96905940  0.03596273  0.42946053    -0.05700
C4          C  0.02614815  0.00712431  0.42406681    -0.06500
C5          C  0.97464776  0.30038403  0.43947520    -0.06300
C6          C  0.95493566  0.02578076  0.39100422    -0.05700
C7          C  0.01338080  0.33752595  0.38218415    -0.06500
C8          C  0.97043149  0.29328026  0.39818894    -0.06300
C9          C  0.91929226  0.03421116  0.38675760    -0.31700
N10         N  0.91449825  0.06187148  0.41194110     0.14800
C11         C  0.94507619  0.06176460  0.44010716    -0.31700
H12         H  0.94940387  0.07895419  0.46689811     0.16700
C13         C  0.04022275  0.32415992  0.36375465    -0.30700
N14         N  0.06936394  0.31794635  0.39176057     0.13500
C15         C  0.06113590  0.32628271  0.42827743    -0.30700
C16         C  0.94566562  0.26592029  0.38959420    -0.31000
N17         N  0.92537862  0.26247483  0.41717766     0.14000
H18         H  0.94466431  0.24675435  0.36568819     0.16600
C19         C  0.94335254  0.28178331  0.44981052    -0.31000
H20         H  0.93415126  0.28290020  0.47813032     0.16600
H21         H  0.07893951  0.31957603  0.45579804     0.16600
H22         H  0.89785367  0.02382125  0.36425365     0.16700
H23         H  0.03789891  0.31725870  0.33229468     0.16600
O24         O  0.95546689  0.13724323  0.31284730    -0.80400
O25         O  0.79840070  0.11810106  0.32753499    -0.65100
O26         O  0.89149440  0.14444271  0.31260886    -1.11700
C27         C  0.89648261  0.23503194  0.40772788     1.06500
O28         O  0.78830738  0.18186188  0.32546456    -0.78300
O29         O  0.84081234  0.22357552  0.30071345    -0.65900
Ni30       Ni  0.91820940  0.10289597  0.32341764     1.34900
C31         C  0.87152536  0.23684395  0.29761258     0.85200
O32         O  0.84755437  0.08210922  0.28501296    -0.78800
O33         O  0.90266472  0.08633962  0.27001915    -0.89100
C34         C  0.77734585  0.14669641  0.32230664     0.84800
O35         O  0.92456611  0.11620593  0.37746481    -0.67300
O36         O  0.86767649  0.24435517  0.38353775    -0.86600
C37         C  0.90096930  0.09508848  0.38952788     0.85600
C38         C  0.87311335  0.06747536  0.26917821     1.07200
H39         H  0.85014027  0.15657602  0.38583828     0.39000
O40         O  0.85292522  0.16701339  0.35985862    -1.09200
O41         O  0.89751537  0.22246785  0.32216057    -0.65900
Ni42       Ni  0.90067998  0.17545444  0.35845398     1.26300
O43         O  0.86871443  0.09378795  0.36837332    -0.66100
O44         O  0.90637437  0.20132498  0.40806624    -0.78400
C45         C  0.96480599  0.16852754  0.33157603     0.85000
O46         O  0.94969328  0.18118456  0.35852535    -0.65600
Ni47       Ni  0.82798597  0.21184377  0.35273007     1.27400
Ni48       Ni  0.84739440  0.12704134  0.32140067     1.26100
H49         H  0.89118117  0.15708385  0.28686457     0.39600
C50         C  0.87442758  0.27784914  0.27639100     0.30500
C51         C  0.87335779  0.02310026  0.26461049     0.30500
C52         C  0.90353345  0.30159728  0.30226420    -0.05700
C53         C  0.88287742  0.29238424  0.23387178    -0.06500
C54         C  0.83889423  0.29771464  0.27772417    -0.06300
C55         C  0.90309317  0.00749374  0.29675324    -0.05700
C56         C  0.88058353  0.00047492  0.22758178    -0.06500
C57         C  0.83899462  0.00377554  0.27313065    -0.06300
C58         C  0.93830581  0.02044472  0.30880370    -0.31700
N59         N  0.95863313  0.32530731  0.32723443     0.14800
C60         C  0.93934972  0.29401502  0.31268530    -0.31700
H61         H  0.95116245  0.26705859  0.30860466     0.16700
C62         C  0.90608703  0.01169995  0.20497787    -0.30700
N63         N  0.92530284  0.31499406  0.19818631     0.13500
C64         C  0.91246649  0.28353624  0.21625422    -0.30700
C65         C  0.80418052  0.01346045  0.25879118    -0.31000
N66         N  0.78243100  0.31520074  0.25544681     0.14000
H67         H  0.79568721  0.04158193  0.24813241     0.16600
C68         C  0.80333735  0.28495834  0.26536179    -0.31000
H69         H  0.79357837  0.25579874  0.26031659     0.16600
H70         H  0.92716508  0.25758913  0.22240100     0.16600
H71         H  0.94734562  0.04999820  0.31047917     0.16700
H72         H  0.91509325  0.04104568  0.20154492     0.16600
C73         C  0.05645875  0.32586655  0.20934458     0.30500
C74         C  0.03488372  0.33886110  0.12945937     0.30500
C75         C  0.05436215  0.29029188  0.18301989    -0.05700
C76         C  0.01790882  0.33783870  0.19902724    -0.06500
C77         C  0.07816082  0.02207951  0.18835126    -0.06300
C78         C  0.05131784  0.29850274  0.14160291    -0.05700
C79         C  0.00496675  0.34180180  0.15705454    -0.06500
C80         C  0.06435402  0.03314195  0.15022151    -0.06300
C81         C  0.08196976  0.28036307  0.13250736    -0.31700
N82         N  0.09714492  0.25939013  0.16511671     0.14800
C83         C  0.07582892  0.26106136  0.19161660    -0.31700
H84         H  0.07631569  0.24172242  0.21648460     0.16700
C85         C  0.96894771  0.32893424  0.15304570    -0.30700
N86         N  0.96032080  0.32019309  0.18960574     0.13500
C87         C  0.98998381  0.32495422  0.21754238    -0.30700
C88         C  0.08790366  0.06149274  0.14006785    -0.31000
N89         N  0.11809163  0.06272443  0.16872173     0.14000
H90         H  0.08337900  0.08007589  0.11385853     0.16600
C91         C  0.11374190  0.03275876  0.19298321    -0.31000
H92         H  0.13482643  0.02364742  0.21624252     0.16600
H93         H  0.99181208  0.31706133  0.24894201     0.16600
H94         H  0.09326077  0.28363521  0.10550464     0.16700
H95         H  0.95051227  0.32318530  0.12562176     0.16600
O96         O  0.07639863  0.12537973  0.27472070    -0.80400
O97         O  0.23020391  0.12804973  0.24986921    -0.65100
O98         O  0.13851265  0.14151337  0.27114027    -1.11700
C99         C  0.12649253  0.23480496  0.17619831     1.06500
O100        O  0.23791860  0.19234180  0.25687424    -0.78300
O101        O  0.18333226  0.22143413  0.28312289    -0.65900
Ni102      Ni  0.11387669  0.09700085  0.26129808     1.34900
C103        C  0.15358009  0.23445116  0.28583735     0.85200
O104        O  0.18511427  0.08266737  0.29561913    -0.78800
O105        O  0.13155258  0.08162062  0.31437213    -0.89100
C106        C  0.24991923  0.15903301  0.25332030     0.84800
O107        O  0.10481181  0.11124918  0.20698415    -0.67300
O108        O  0.15499585  0.24672923  0.20027783    -0.86600
C109        C  0.12937695  0.09542919  0.19306731     0.85600
C110        C  0.16058534  0.06509840  0.31291993     1.07200
H111        H  0.17619566  0.16308771  0.19542483     0.39000
O112        O  0.17366006  0.17123990  0.22191263    -1.09200
O113        O  0.12731443  0.21989654  0.26099351    -0.65900
Ni114      Ni  0.12585149  0.17317280  0.22568375     1.26300
O115        O  0.16179089  0.09730959  0.21318991    -0.66100
O116        O  0.11718471  0.20020708  0.17644865    -0.78400
C117        C  0.06605836  0.15723051  0.25849790     0.85000
O118        O  0.07704887  0.17165983  0.22834823    -0.65600
Ni119      Ni  0.19659930  0.21829302  0.23060674     1.27400
Ni120      Ni  0.18240289  0.13013866  0.25990349     1.26100
H121        H  0.13942161  0.15303006  0.29710498     0.39600
C122        C  0.15335004  0.27552080  0.30549745     0.30500
C123        C  0.15896600  0.02063835  0.31618898     0.30500
C124        C  0.12599565  0.29929129  0.27866017    -0.05700
C125        C  0.14511152  0.28960770  0.34755466    -0.06500
C126        C  0.19017403  0.29582442  0.30383616    -0.06300
C127        C  0.12836466  0.00521769  0.28379120    -0.05700
C128        C  0.15015474  0.99744946  0.35336066    -0.06500
C129        C  0.19220002  0.00164177  0.30774550    -0.06300
C130        C  0.09361481  0.01755518  0.27127162    -0.31700
N131        N  0.07199896  0.32226950  0.25317807     0.14800
C132        C  0.08999911  0.29105797  0.26753865    -0.31700
H133        H  0.07687664  0.26420624  0.27344177     0.16700
C134        C  0.12560803  0.00864173  0.37616747    -0.30700
N135        N  0.10406048  0.31219207  0.38317119     0.13500
C136        C  0.11459000  0.28093978  0.36500746    -0.30700
C137        C  0.22764422  0.01301009  0.31075217    -0.31000
N138        N  0.24769248  0.31532029  0.30884636     0.14000
H139        H  0.23850084  0.04187551  0.31522852     0.16600
C140        C  0.22550838  0.28420844  0.30609547    -0.31000
H141        H  0.23514935  0.25557578  0.30638571     0.16600
H142        H  0.09792781  0.25534920  0.35876318     0.16600
H143        H  0.08526757  0.04663314  0.27035016     0.16700
H144        H  0.11896339  0.03804544  0.37972125     0.16600
C145        C  0.55194031  0.14846276  0.18673258     0.30500
C146        C  0.53291402  0.16342950  0.10685001     0.30500
C147        C  0.54517676  0.11246055  0.16012351    -0.05700
C148        C  0.51576849  0.16702831  0.17585978    -0.06500
C149        C  0.57769797  0.17363074  0.16621458    -0.06300
C150        C  0.54427050  0.12096834  0.11875439    -0.05700
C151        C  0.50384534  0.17131505  0.13382764    -0.06500
C152        C  0.56545464  0.18647686  0.12827878    -0.06300
C153        C  0.57436599  0.10045287  0.11145407    -0.31700
N154        N  0.58594789  0.07710671  0.14358299     0.14800
C155        C  0.56335656  0.08037376  0.16863877    -0.31700
H156        H  0.56333787  0.06211439  0.19432595     0.16700
C157        C  0.46678297  0.16366948  0.12883631    -0.30700
N158        N  0.45662625  0.15937200  0.16507676     0.13500
C159        C  0.48607679  0.16048402  0.19373029    -0.30700
C160        C  0.58848509  0.21685994  0.12208998    -0.31000
N161        N  0.61658680  0.21820917  0.15349311     0.14000
H162        H  0.58383281  0.23794487  0.09809082     0.16600
C163        C  0.61224912  0.18685114  0.17576952    -0.31000
H164        H  0.63145249  0.17920844  0.20157493     0.16600
H165        H  0.48607736  0.15438934  0.22514919     0.16600
H166        H  0.58847544  0.10477385  0.08670007     0.16700
H167        H  0.44852826  0.15743860  0.10137963     0.16600
O168        O  0.56672566  0.27541061  0.25977670    -0.80400
O169        O  0.72459422  0.28470543  0.24137944    -0.65100
O170        O  0.63049564  0.29621885  0.25777513    -1.11700
C171        C  0.61536765  0.05277183  0.15732868     1.06500
O172        O  0.73164528  0.01565824  0.23283527    -0.78300
O173        O  0.67913696  0.05013820  0.25945274    -0.65900
Ni174      Ni  0.60664020  0.25076717  0.24710911     1.34900
C175        C  0.64887680  0.05916013  0.26602982     0.85200
O176        O  0.67708593  0.23948442  0.28508409    -0.78800
O177        O  0.62210932  0.23660206  0.30047477    -0.89100
C178        C  0.74428671  0.31575766  0.24204988     0.84800
O179        O  0.59912682  0.26442873  0.19245003    -0.67300
O180        O  0.64524042  0.06604408  0.17747423    -0.86600
C181        C  0.62527042  0.24990611  0.17992285     0.85600
C182        C  0.65151757  0.22089597  0.30009180     1.07200
H183        H  0.66641612  0.98153270  0.18113805     0.39000
O184        O  0.66509112  0.99181185  0.20712834    -1.09200
O185        O  0.62136787  0.04114143  0.24628393    -0.65900
Ni186      Ni  0.61719333  0.99365218  0.21240847     1.26300
O187        O  0.65681918  0.25185689  0.20214561    -0.66100
O188        O  0.60587015  0.01870568  0.16224171    -0.78400
C189        C  0.55914334  0.30949764  0.24910539     0.85000
O190        O  0.56860777  0.99183938  0.21830583    -0.65600
Ni191      Ni  0.68828993  0.03922511  0.20693947     1.27400
Ni192      Ni  0.67510895  0.28607595  0.24805110     1.26100
H193        H  0.63051230  0.30778495  0.28352972     0.39600
C194        C  0.64718500  0.09897128  0.28713888     0.30500
C195        C  0.64962596  0.17657922  0.30107290     0.30500
C196        C  0.62015490  0.12281817  0.26004155    -0.05700
C197        C  0.63803607  0.11047440  0.32931731    -0.06500
C198        C  0.68339621  0.12077681  0.28747927    -0.06300
C199        C  0.62024116  0.16149255  0.26721647    -0.05700
C200        C  0.64135813  0.15130809  0.33695624    -0.06500
C201        C  0.68352081  0.15992479  0.29271886    -0.06300
C202        C  0.58565968  0.17287146  0.25132102    -0.31700
N203        N  0.56654910  0.14378225  0.23058602     0.14800
C204        C  0.58570320  0.11310020  0.24398329    -0.31700
H205        H  0.57360542  0.08616806  0.25012824     0.16700
C206        C  0.61664100  0.15973983  0.36047524    -0.30700
N207        N  0.59686229  0.12820647  0.36657461     0.13500
C208        C  0.60851872  0.09882131  0.34672100    -0.30700
C209        C  0.71775524  0.17149840  0.30748360    -0.31000
N210        N  0.73946432  0.14161439  0.31035177     0.14000
H211        H  0.72603137  0.19970743  0.31878475     0.16600
C212        C  0.71885232  0.10997093  0.29998685    -0.31000
H213        H  0.72862999  0.08126888  0.30387314     0.16600
H214        H  0.59310375  0.07269790  0.33928202     0.16600
H215        H  0.57597256  0.20137436  0.25086055     0.16700
H216        H  0.60838181  0.18836925  0.36504521     0.16600
C217        C  0.49221089  0.17576941  0.42894814     0.30500
C218        C  0.47401812  0.17568895  0.34819235     0.30500
C219        C  0.48357903  0.21647751  0.40727164    -0.05700
C220        C  0.51906426  0.15595830  0.40504313    -0.04100
C221        C  0.45754711  0.15295913  0.41312310    -0.06300
C222        C  0.48363690  0.21597028  0.36543558    -0.05700
C223        C  0.50776381  0.15504734  0.36377414    -0.06500
C224        C  0.44619105  0.15890131  0.37300518    -0.06300
C225        C  0.46663459  0.24706259  0.34871219    -0.31700
N226        N  0.44312294  0.25785942  0.37061248     0.14800
C227        C  0.45338438  0.24039367  0.40741100    -0.31700
H228        H  0.43754675  0.24089290  0.43085066     0.16700
C229        C  0.53423925  0.14131302  0.34563720    -0.30700
N230        N  0.56172832  0.13118668  0.37438408     0.13500
C231        C  0.55310516  0.13995837  0.41069361    -0.30700
C232        C  0.41083400  0.14838739  0.36554847    -0.31000
N233        N  0.40397404  0.12352680  0.39393106     0.14000
H234        H  0.39152747  0.15439437  0.33937380     0.16600
C235        C  0.43234596  0.12731456  0.42489327    -0.31000
H236        H  0.43557078  0.11079170  0.45259342     0.16600
H237        H  0.57137159  0.13614904  0.43859564     0.16600
H238        H  0.46721939  0.25683301  0.31889903     0.16700
H239        H  0.53533797  0.14311006  0.31394272     0.16600
O240        O  0.47557655  0.32346391  0.30723636    -0.80400
O241        O  0.30715171  0.29084454  0.31640791    -0.65100
O242        O  0.40003117  0.32427401  0.29060091    -1.11700
C243        C  0.38804541  0.08836452  0.37697702     1.06500
O244        O  0.29558824  0.01480336  0.28909745    -0.78300
O245        O  0.34656273  0.06144350  0.26967550    -0.65900
Ni246      Ni  0.43809527  0.29328777  0.27714290     1.34900
C247        C  0.37592349  0.07959559  0.27131645     0.85200
O248        O  0.35521000  0.25493673  0.27449685    -0.78800
O249        O  0.40211026  0.26229330  0.24278261    -0.89100
C250        C  0.28490906  0.31770010  0.30508679     0.84800
O251        O  0.41223420  0.29740481  0.31847206    -0.67300
O252        O  0.35844108  0.08978716  0.35144767    -0.86600
C253        C  0.41177100  0.27793683  0.35019933     0.85600
C254        C  0.37594028  0.24223802  0.25154233     1.07200
H255        H  0.35605759  0.00612759  0.36441125     0.39000
O256        O  0.35866297  0.01294708  0.33721109    -1.09200
O257        O  0.40119441  0.06947286  0.29846717    -0.65900
Ni258      Ni  0.40664280  0.02611976  0.33551388     1.26300
O259        O  0.38002346  0.27429022  0.35570354    -0.66100
O260        O  0.40798413  0.05965479  0.37949083    -0.78400
C261        C  0.47949554  0.35516733  0.32544612     0.85000
O262        O  0.45487181  0.03921446  0.33658002    -0.65600
Ni263      Ni  0.32730970  0.05166555  0.31874613     1.27400
Ni264      Ni  0.35524660  0.30189470  0.30547360     1.26100
H265        H  0.39236008  0.33906060  0.26611495     0.39600
C266        C  0.37705957  0.12063623  0.25343197     0.30500
C267        C  0.37513749  0.19873898  0.24358362     0.30500
C268        C  0.40843617  0.14422019  0.27631445    -0.05700
C269        C  0.38024022  0.13519772  0.20977137    -0.06500
C270        C  0.34352465  0.13994282  0.26145502    -0.06300
C271        C  0.40674521  0.18312061  0.27169386    -0.05700
C272        C  0.37856980  0.17675560  0.20447721    -0.06500
C273        C  0.34316826  0.17907878  0.25696516    -0.06300
C274        C  0.44067861  0.19719914  0.28342613    -0.31700
N275        N  0.46105977  0.17063744  0.30462535     0.14800
C276        C  0.44323286  0.13708275  0.29379754    -0.31700
H277        H  0.45160505  0.11020461  0.30751461     0.16700
C278        C  0.40354979  0.18699121  0.18059099    -0.30700
N279        N  0.42114745  0.15611144  0.17224409     0.13500
C280        C  0.40747023  0.12500703  0.18955181    -0.30700
C281        C  0.30838847  0.18943818  0.25229107    -0.31000
N282        N  0.28750099  0.15799603  0.25534391     0.14000
H283        H  0.29854970  0.21772622  0.24445491     0.16600
C284        C  0.30811506  0.12737523  0.25938355    -0.31000
H285        H  0.29715668  0.09851683  0.25837353     0.16600
H286        H  0.42141300  0.09846756  0.19490724     0.16600
H287        H  0.45152117  0.22227700  0.27048349     0.16700
H288        H  0.41398991  0.21589772  0.17795143     0.16600
C289        C  0.54672137  0.33382759  0.27745824    -0.05000
C290        C  0.52875877  0.36663852  0.26317385    -0.32400
C291        C  0.51630725  0.39005252  0.28997825     0.36900
C292        C  0.51408453  0.37437446  0.32802767    -0.05300
C293        C  0.54138680  0.35046756  0.34529801    -0.32300
C294        C  0.55654604  0.32793465  0.31949391     0.36800
H295        H  0.52276459  0.37322981  0.23135561     0.17100
O296        O  0.49505050  0.41922679  0.27447034    -0.59800
H297        H  0.54426624  0.34244805  0.37678640     0.17200
O298        O  0.57850940  0.29913047  0.33522363    -0.59900
H299        H  0.60184516  0.31197250  0.34552969     0.44200
H300        H  0.51061760  0.43701624  0.26173800     0.44100
C301        C  0.50310468  0.17747163  0.97510524    -0.05000
C302        C  0.53908986  0.17584280  0.99372865    -0.32400
C303        C  0.54918913  0.17075413  0.03558132     0.36900
C304        C  0.52341833  0.17203957  0.06100082    -0.05300
C305        C  0.48888275  0.18248729  0.04249460    -0.32300
C306        C  0.47819315  0.18338543  0.00050863     0.36800
H307        H  0.55999017  0.17972804  0.97631585     0.17100
O308        O  0.58477615  0.16808032  0.05152270    -0.59800
H309        H  0.46965031  0.19116646  0.05972128     0.17200
O310        O  0.44310852  0.18958700  0.48481459    -0.59900
H311        H  0.43782922  0.21483101  0.99494594     0.44200
H312        H  0.59431573  0.14849433  0.03577246     0.44100
C313        C  0.99260132  0.19187757  0.32020404    -0.05000
C314        C  0.98714384  0.20280111  0.27966957    -0.32400
C315        C  0.01366243  0.19593650  0.25788798     0.36900
C316        C  0.04496761  0.18026407  0.27859307    -0.05300
C317        C  0.05359692  0.18125393  0.32058199    -0.32300
C318        C  0.02677971  0.18710008  0.34209029     0.36800
H319        H  0.96045050  0.20784709  0.26360062     0.17100
O320        O  0.00602105  0.19646886  0.21668315    -0.59800
H321        H  0.07909369  0.17148698  0.33627698     0.17200
O322        O  0.03198198  0.17784849  0.38227747    -0.59900
H323        H  0.03106127  0.20240799  0.39612763     0.44200
H324        H  0.00726947  0.22383588  0.20882794     0.44100
C325        C  0.02516813  0.01226302  0.08344640    -0.05000
C326        C  0.98979402  0.35051542  0.06431582    -0.32400
C327        C  0.97948569  0.34761866  0.02237974     0.36900
C328        C  0.00555528  0.01210782  0.49724526    -0.05300
C329        C  0.04137398  0.01520098  0.01631836    -0.32300
C330        C  0.05135171  0.01321858  0.05832063     0.36800
H331        H  0.96938499  0.35635476  0.08123205     0.17100
O332        O  0.94382344  0.34882015  0.50630938    -0.59800
H333        H  0.06239853  0.01931495  0.99934874     0.17200
O334        O  0.08702240  0.01220898  0.07423205    -0.59900
H335        H  0.09819544  0.03584463  0.06467232     0.44200
H336        H  0.93104888  0.33106428  0.02256611     0.44100
C337        C  0.99533512  0.00625315  0.95124780     0.30500
C338        C  0.97369734  0.32836282  0.87125320     0.30500
C339        C  0.96906888  0.03596853  0.92947543    -0.05700
C340        C  0.02615408  0.00712249  0.92407313    -0.06500
C341        C  0.97464041  0.30038625  0.93947622    -0.06300
C342        C  0.95494179  0.02579107  0.89101897    -0.05700
C343        C  0.01337381  0.33753086  0.88218844    -0.06500
C344        C  0.97042096  0.29328680  0.89818757    -0.06300
C345        C  0.91930086  0.03423035  0.88677295    -0.31700
N346        N  0.91451287  0.06189196  0.91195743     0.14800
C347        C  0.94509256  0.06178008  0.94012200    -0.31700
H348        H  0.94942341  0.07896773  0.96691447     0.16700
C349        C  0.04021688  0.32416289  0.86376093    -0.30700
N350        N  0.06935868  0.31795112  0.89176715     0.13500
C351        C  0.06112899  0.32628885  0.92828342    -0.30700
C352        C  0.94564110  0.26594354  0.88958873    -0.31000
N353        N  0.92535673  0.26249954  0.91717414     0.14000
H354        H  0.94464395  0.24677031  0.86569003     0.16600
C355        C  0.94334381  0.28178943  0.94981257    -0.31000
H356        H  0.93415309  0.28289248  0.97813943     0.16600
H357        H  0.07893219  0.31958501  0.95580533     0.16600
H358        H  0.89786119  0.02384845  0.86426561     0.16700
H359        H  0.03789326  0.31725948  0.83230157     0.16600
O360        O  0.95545459  0.13725640  0.81284128    -0.80400
O361        O  0.79839861  0.11810628  0.82756148    -0.65100
O362        O  0.89148521  0.14445375  0.81261605    -1.11700
C363        C  0.89646699  0.23505074  0.90772566     1.06500
O364        O  0.78830316  0.18186666  0.82545433    -0.78300
O365        O  0.84080707  0.22358252  0.80070625    -0.65900
Ni366      Ni  0.91820309  0.10290965  0.82342238     1.34900
C367        C  0.87152049  0.23685037  0.79760565     0.85200
O368        O  0.84754988  0.08211274  0.78503596    -0.78800
O369        O  0.90265346  0.08635241  0.77002479    -0.89100
C370        C  0.77734237  0.14670016  0.82231664     0.84800
O371        O  0.92457175  0.11622320  0.87747029    -0.67300
O372        O  0.86766039  0.24436908  0.88353298    -0.86600
C373        C  0.90097919  0.09510812  0.88954420     0.85600
C374        C  0.87310484  0.06748515  0.76918881     1.07200
H375        H  0.85013607  0.15659610  0.88584940     0.39000
O376        O  0.85291976  0.16702773  0.85986685    -1.09200
O377        O  0.89750855  0.22247809  0.82215810    -0.65900
Ni378      Ni  0.90067402  0.17547003  0.85845637     1.26300
O379        O  0.86872078  0.09380555  0.86839726    -0.66100
O380        O  0.90636738  0.20134648  0.90806533    -0.78400
C381        C  0.96479694  0.16854160  0.83156594     0.85000
O382        O  0.94968776  0.18120310  0.85851739    -0.65600
Ni383      Ni  0.82797582  0.21185420  0.85272276     1.27400
Ni384      Ni  0.84738989  0.12704892  0.82141858     1.26100
H385        H  0.89116571  0.15709237  0.78686965     0.39600
C386        C  0.87442594  0.27785247  0.77637783     0.30500
C387        C  0.87335249  0.02311150  0.76461480     0.30500
C388        C  0.90352969  0.30160258  0.80225268    -0.05700
C389        C  0.88288289  0.29238553  0.73386019    -0.06500
C390        C  0.83889093  0.29771846  0.77770227    -0.06300
C391        C  0.90308506  0.00750615  0.79676154    -0.05700
C392        C  0.88058289  0.00048459  0.72758784    -0.06500
C393        C  0.83898765  0.00378692  0.77312799    -0.06300
C394        C  0.93829698  0.02045910  0.80881594    -0.31700
N395        N  0.95862612  0.32531606  0.82723464     0.14800
C396        C  0.93934675  0.29402289  0.81267934    -0.31700
H397        H  0.95116153  0.26706533  0.80860802     0.16700
C398        C  0.90609114  0.01170163  0.70498629    -0.30700
N399        N  0.92531158  0.31499374  0.69817774     0.13500
C400        C  0.91247465  0.28353682  0.71624696    -0.30700
C401        C  0.80417529  0.01347139  0.75877979    -0.31000
N402        N  0.78242905  0.31520330  0.75541334     0.14000
H403        H  0.79568360  0.04159178  0.74811454     0.16600
C404        C  0.80333442  0.28496158  0.76533823    -0.31000
H405        H  0.79357475  0.25580129  0.76030121     0.16600
H406        H  0.92717294  0.25758975  0.72239547     0.16600
H407        H  0.94733504  0.05001313  0.81049286     0.16700
H408        H  0.91510662  0.04104449  0.70155641     0.16600
C409        C  0.05646388  0.32586934  0.70934144     0.30500
C410        C  0.03489453  0.33886105  0.62945549     0.30500
C411        C  0.05436644  0.29029294  0.68301885    -0.05700
C412        C  0.01791585  0.33784353  0.69902135    -0.06500
C413        C  0.07814548  0.02208805  0.68834241    -0.06300
C414        C  0.05132789  0.29850378  0.64160215    -0.05700
C415        C  0.00497590  0.34180465  0.65704821    -0.06500
C416        C  0.06433680  0.03314828  0.65021177    -0.06300
C417        C  0.08198660  0.28037184  0.63251470    -0.31700
N418        N  0.09716290  0.25940652  0.66512784     0.14800
C419        C  0.07583788  0.26106749  0.69161911    -0.31700
H420        H  0.07631936  0.24172450  0.71648283     0.16700
C421        C  0.96895761  0.32893392  0.65303827    -0.30700
N422        N  0.96032972  0.32019265  0.68959792     0.13500
C423        C  0.98999105  0.32495786  0.71753550    -0.30700
C424        C  0.08788737  0.06149683  0.64005334    -0.31000
N425        N  0.11807785  0.06272970  0.66870423     0.14000
H426        H  0.08336219  0.08007625  0.61384107     0.16600
C427        C  0.11372687  0.03276854  0.69297123    -0.31000
H428        H  0.13481235  0.02365859  0.71623001     0.16600
H429        H  0.99181908  0.31706431  0.74893498     0.16600
H430        H  0.09328149  0.28364222  0.60551483     0.16700
H431        H  0.95052387  0.32318255  0.62561362     0.16600
O432        O  0.07639261  0.12538207  0.77468970    -0.80400
O433        O  0.23020332  0.12805221  0.74985436    -0.65100
O434        O  0.13851090  0.14151406  0.77112355    -1.11700
C435        C  0.12650949  0.23482166  0.67620688     1.06500
O436        O  0.23791749  0.19233950  0.75690004    -0.78300
O437        O  0.18333181  0.22143230  0.78313737    -0.65900
Ni438      Ni  0.11387213  0.09700606  0.76126752     1.34900
C439        C  0.15357892  0.23445085  0.78584488     0.85200
O440        O  0.18510732  0.08266173  0.79559422    -0.78800
O441        O  0.13154292  0.08161696  0.81434084    -0.89100
C442        C  0.24991762  0.15903656  0.75331694     0.84800
O443        O  0.10481188  0.11126727  0.70695656    -0.67300
O444        O  0.15501063  0.24674187  0.70029284    -0.86600
C445        C  0.12937250  0.09543896  0.69304112     0.85600
C446        C  0.16057664  0.06509465  0.81289397     1.07200
H447        H  0.17620526  0.16310336  0.69541990     0.39000
O448        O  0.17366627  0.17124870  0.72190912    -1.09200
O449        O  0.12731713  0.21990015  0.76099258    -0.65900
Ni450      Ni  0.12585703  0.17318240  0.72567415     1.26300
O451        O  0.16178722  0.09731580  0.71316407    -0.66100
O452        O  0.11720096  0.20022410  0.67644537    -0.78400
C453        C  0.06605396  0.15723536  0.75847191     0.85000
O454        O  0.07705197  0.17167287  0.72833043    -0.65600
Ni455      Ni  0.19660789  0.21829916  0.73062476     1.27400
Ni456      Ni  0.18240140  0.13013813  0.75988707     1.26100
H457        H  0.13941871  0.15302556  0.79709062     0.39600
C458        C  0.15334733  0.27552085  0.80550335     0.30500
C459        C  0.15895786  0.02063529  0.81617076     0.30500
C460        C  0.12599224  0.29929000  0.77866439    -0.05700
C461        C  0.14510731  0.28961011  0.84755996    -0.06500
C462        C  0.19017196  0.29582539  0.80384070    -0.06300
C463        C  0.12835565  0.00521268  0.78377669    -0.05700
C464        C  0.15014894  0.99744836  0.85334487    -0.06500
C465        C  0.19219049  0.00163907  0.80772590    -0.06300
C466        C  0.09360641  0.01755147  0.77125998    -0.31700
N467        N  0.07199810  0.32227103  0.75317635     0.14800
C468        C  0.08999535  0.29105840  0.76754112    -0.31700
H469        H  0.07687116  0.26420647  0.77344017     0.16700
C470        C  0.12560289  0.00864063  0.87615287    -0.30700
N471        N  0.10405591  0.31219634  0.88317753     0.13500
C472        C  0.11458603  0.28094300  0.86501499    -0.30700
C473        C  0.22763437  0.01300850  0.81073785    -0.31000
N474        N  0.24769024  0.31532925  0.80885102     0.14000
H475        H  0.23849044  0.04187377  0.81521757     0.16600
C476        C  0.22550882  0.28421378  0.80610164    -0.31000
H477        H  0.23515206  0.25558184  0.80639452     0.16600
H478        H  0.09792464  0.25535141  0.85877363     0.16600
H479        H  0.08526257  0.04663117  0.77033145     0.16700
H480        H  0.11895612  0.03804411  0.87970408     0.16600
C481        C  0.55194551  0.14845946  0.68672754     0.30500
C482        C  0.53292166  0.16342375  0.60684448     0.30500
C483        C  0.54516940  0.11245680  0.66012079    -0.05700
C484        C  0.51577923  0.16703411  0.67585629    -0.06500
C485        C  0.57770852  0.17362009  0.66620829    -0.06300
C486        C  0.54426726  0.12096167  0.61875190    -0.05700
C487        C  0.50385554  0.17132243  0.63382359    -0.06500
C488        C  0.56546791  0.18646257  0.62826991    -0.06300
C489        C  0.57436109  0.10044192  0.61145655    -0.31700
N490        N  0.58593625  0.07709688  0.64358748     0.14800
C491        C  0.56334063  0.08036577  0.66863758    -0.31700
H492        H  0.56331899  0.06210949  0.69432634     0.16700
C493        C  0.46679205  0.16368313  0.62883604    -0.30700
N494        N  0.45663722  0.15938518  0.66507755     0.13500
C495        C  0.48608871  0.16049163  0.69372896    -0.30700
C496        C  0.58850546  0.21683464  0.62207072    -0.31000
N497        N  0.61660397  0.21818861  0.65347623     0.14000
H498        H  0.58385882  0.23791221  0.59806378     0.16600
C499        C  0.61226081  0.18683847  0.67576337    -0.31000
H500        H  0.63146050  0.17920256  0.70157475     0.16600
H501        H  0.48609076  0.15439117  0.72514731     0.16600
H502        H  0.58847631  0.10476159  0.58670739     0.16700
H503        H  0.44853432  0.15745464  0.60138124     0.16600
O504        O  0.56671091  0.27539854  0.75972131    -0.80400
O505        O  0.72459204  0.28470892  0.74136350    -0.65100
O506        O  0.63048635  0.29621569  0.75773863    -1.11700
C507        C  0.61535791  0.05276949  0.65734423     1.06500
O508        O  0.73163825  0.01567117  0.73284579    -0.78300
O509        O  0.67913007  0.05013218  0.75947621    -0.65900
Ni510      Ni  0.60663572  0.25076234  0.74706764     1.34900
C511        C  0.64887074  0.05915760  0.76605099     0.85200
O512        O  0.67707934  0.23948812  0.78506372    -0.78800
O513        O  0.62209632  0.23660209  0.80043739    -0.89100
C514        C  0.74428444  0.31575997  0.74202012     0.84800
O515        O  0.59913401  0.26442228  0.69240839    -0.67300
O516        O  0.64522568  0.06604832  0.67749588    -0.86600
C517        C  0.62528172  0.24989494  0.67989351     0.85600
C518        C  0.65150933  0.22090026  0.80006956     1.07200
H519        H  0.66641146  0.98154543  0.68114937     0.39000
O520        O  0.66508587  0.99182060  0.70714133    -1.09200
O521        O  0.62136167  0.04114244  0.74630088    -0.65900
Ni522      Ni  0.61718887  0.99365399  0.71242547     1.26300
O523        O  0.65682703  0.25185170  0.70212233    -0.66100
O524        O  0.60586315  0.01870326  0.66225892    -0.78400
C525        C  0.55913503  0.30949067  0.74906501     0.85000
O526        O  0.56860334  0.99183728  0.71832488    -0.65600
Ni527      Ni  0.68827999  0.03923518  0.70695774     1.27400
Ni528      Ni  0.67510405  0.28607696  0.74802520     1.26100
H529        H  0.63049765  0.30778014  0.78349320     0.39600
C530        C  0.64718110  0.09897190  0.78715343     0.30500
C531        C  0.64962330  0.17658348  0.80106764     0.30500
C532        C  0.62015519  0.12281495  0.76004697    -0.05700
C533        C  0.63802906  0.11048601  0.82932775    -0.06500
C534        C  0.68339370  0.12077467  0.78749269    -0.06300
C535        C  0.62024033  0.16148975  0.76721467    -0.05700
C536        C  0.64135338  0.15132131  0.83695691    -0.06500
C537        C  0.68351842  0.15992479  0.79271944    -0.06300
C538        C  0.58565970  0.17286683  0.75131528    -0.31700
N539        N  0.56655224  0.14377681  0.73058047     0.14800
C540        C  0.58570644  0.11309535  0.74397969    -0.31700
H541        H  0.57360814  0.08616443  0.75012701     0.16700
C542        C  0.61663813  0.15976165  0.86047549    -0.30700
N543        N  0.59685663  0.12823227  0.86658218     0.13500
C544        C  0.60851025  0.09884103  0.84673387    -0.30700
C545        C  0.71775234  0.17150065  0.80748101    -0.31000
N546        N  0.73946110  0.14161538  0.81036237     0.14000
H547        H  0.72602826  0.19971366  0.81877050     0.16600
C548        C  0.71884911  0.10996966  0.80000727    -0.31000
H549        H  0.72862586  0.08126759  0.80390288     0.16600
H550        H  0.59309352  0.07271707  0.83930227     0.16600
H551        H  0.57597112  0.20136915  0.75085063     0.16700
H552        H  0.60838287  0.18839351  0.86504105     0.16600
C553        C  0.49219442  0.17578192  0.92895886     0.30500
C554        C  0.47400536  0.17570361  0.84820284     0.30500
C555        C  0.48356373  0.21648987  0.90728453    -0.05700
C556        C  0.51905138  0.15597341  0.90505439    -0.04100
C557        C  0.45753055  0.15297105  0.91313134    -0.06300
C558        C  0.48362397  0.21598299  0.86544979    -0.05700
C559        C  0.50775163  0.15506317  0.86378488    -0.06500
C560        C  0.44617664  0.15891361  0.87301265    -0.06300
C561        C  0.46662736  0.24707678  0.84872646    -0.31700
N562        N  0.44311630  0.25787742  0.87062507     0.14800
C563        C  0.45337195  0.24040974  0.90742342    -0.31700
H564        H  0.43753139  0.24090994  0.93086039     0.16700
C565        C  0.53423262  0.14134238  0.84564716    -0.30700
N566        N  0.56172304  0.13121806  0.87439302     0.13500
C567        C  0.55309764  0.13998341  0.91070356    -0.30700
C568        C  0.41082063  0.14839386  0.86555112    -0.31000
N569        N  0.40395932  0.12353342  0.89393324     0.14000
H570        H  0.39151562  0.15439794  0.83937430     0.16600
C571        C  0.43232897  0.12732411  0.92489851    -0.31000
H572        H  0.43555155  0.11080314  0.95259983     0.16600
H573        H  0.57136504  0.13617595  0.93860530     0.16600
H574        H  0.46721174  0.25684190  0.81891239     0.16700
H575        H  0.53533272  0.14314710  0.81395343     0.16600
O576        O  0.47558277  0.32345411  0.80724696    -0.80400
O577        O  0.30715370  0.29086518  0.81641592    -0.65100
O578        O  0.40003617  0.32428591  0.79060771    -1.11700
C579        C  0.38802991  0.08837072  0.87697926     1.06500
O580        O  0.29558004  0.01480636  0.78908818    -0.78300
O581        O  0.34655784  0.06145645  0.76967199    -0.65900
Ni582      Ni  0.43809364  0.29329292  0.77714653     1.34900
C583        C  0.37591954  0.07960885  0.77131702     0.85200
O584        O  0.35520664  0.25495213  0.77450040    -0.78800
O585        O  0.40210034  0.26231517  0.74277770    -0.89100
C586        C  0.28490912  0.31771950  0.80509963     0.84800
O587        O  0.41223153  0.29741625  0.81847607    -0.67300
O588        O  0.35842683  0.08979332  0.85144691    -0.86600
C589        C  0.41176643  0.27795286  0.85020687     0.85600
C590        C  0.37593376  0.24225610  0.75153984     1.07200
H591        H  0.35604129  0.00613293  0.86440597     0.39000
O592        O  0.35864978  0.01295318  0.83720729    -1.09200
O593        O  0.40118717  0.06948411  0.79847139    -0.65900
Ni594      Ni  0.40663272  0.02612528  0.83552487     1.26300
O595        O  0.38001908  0.27430804  0.85571019    -0.66100
O596        O  0.40796779  0.05966160  0.87949446    -0.78400
C597        C  0.47951040  0.35515932  0.82545246     0.85000
O598        O  0.45486278  0.03921780  0.83659250    -0.65600
Ni599      Ni  0.32729845  0.05167174  0.81873951     1.27400
Ni600      Ni  0.35524825  0.30191240  0.80547981     1.26100
H601        H  0.39236781  0.33907273  0.76612465     0.39600
C602        C  0.37705853  0.12065077  0.75342787     0.30500
C603        C  0.37513413  0.19875638  0.74357809     0.30500
C604        C  0.40842942  0.14423718  0.77631673    -0.05700
C605        C  0.38024756  0.13521408  0.70976922    -0.06500
C606        C  0.34352032  0.13995745  0.76143931    -0.06300
C607        C  0.40673632  0.18313825  0.77169752    -0.05700
C608        C  0.37857790  0.17677257  0.70447489    -0.06500
C609        C  0.34316140  0.17909342  0.75694695    -0.06300
C610        C  0.44066782  0.19721860  0.78343631    -0.31700
N611        N  0.46104973  0.17065649  0.80463440     0.14800
C612        C  0.44322617  0.13710140  0.79380038    -0.31700
H613        H  0.45160177  0.11022045  0.80750828     0.16700
C614        C  0.40356276  0.18700800  0.68059455    -0.30700
N615        N  0.42115922  0.15612717  0.67224769     0.13500
C616        C  0.40747976  0.12502288  0.68955343    -0.30700
C617        C  0.30838084  0.18945003  0.75226929    -0.31000
N618        N  0.28749695  0.15800554  0.75532589     0.14000
H619        H  0.29853972  0.21773731  0.74443359     0.16600
C620        C  0.30811282  0.12738712  0.75937026    -0.31000
H621        H  0.29715612  0.09852842  0.75837028     0.16600
H622        H  0.42142048  0.09848212  0.69490811     0.16600
H623        H  0.45151006  0.22229570  0.77049168     0.16700
H624        H  0.41400431  0.21591417  0.67795666     0.16600
C625        C  0.54672245  0.33381289  0.77743421    -0.05000
C626        C  0.52876641  0.36663359  0.76316992    -0.32400
C627        C  0.51633182  0.39004384  0.78999158     0.36900
C628        C  0.51410745  0.37435217  0.82803445    -0.05300
C629        C  0.54140304  0.35042896  0.84528700    -0.32300
C630        C  0.55655054  0.32790101  0.81946745     0.36800
H631        H  0.52276891  0.37323906  0.73135509     0.17100
O632        O  0.49509524  0.41924242  0.77450838    -0.59800
H633        H  0.54428281  0.34239401  0.87677131     0.17200
O634        O  0.57850179  0.29908063  0.83517984    -0.59900
H635        H  0.60183128  0.31191263  0.84553664     0.44200
H636        H  0.51066496  0.43701580  0.76176066     0.44100
C637        C  0.50312153  0.17745637  0.47509535    -0.05000
C638        C  0.53910609  0.17582373  0.49372113    -0.32400
C639        C  0.54920291  0.17073492  0.53557468     0.36900
C640        C  0.52343096  0.17202812  0.56099333    -0.05300
C641        C  0.48889619  0.18247242  0.54248352    -0.32300
C642        C  0.47820824  0.18336523  0.50049775     0.36800
H643        H  0.56000789  0.17970406  0.47630954     0.17100
O644        O  0.58478892  0.16805134  0.55151682    -0.59800
H645        H  0.46966141  0.19115001  0.55970709     0.17200
O646        O  0.44309521  0.18961923  0.98482628    -0.59900
H647        H  0.43783817  0.21480179  0.49492308     0.44200
H648        H  0.59432404  0.14846213  0.53576637     0.44100
C649        C  0.99259649  0.19188155  0.82018835    -0.05000
C650        C  0.98713721  0.20280321  0.77965280    -0.32400
C651        C  0.01365366  0.19593732  0.75786756     0.36900
C652        C  0.04495938  0.18026305  0.77856911    -0.05300
C653        C  0.05359004  0.18124793  0.82055785    -0.32300
C654        C  0.02677504  0.18709260  0.84206946     0.36800
H655        H  0.96044380  0.20785330  0.76358655     0.17100
O656        O  0.00601177  0.19647689  0.71666260    -0.59800
H657        H  0.07908680  0.17147843  0.83625018     0.17200
O658        O  0.03197848  0.17783111  0.88225410    -0.59900
H659        H  0.03111234  0.20239529  0.89611367     0.44200
H660        H  0.00723085  0.22384768  0.70881325     0.44100
C661        C  0.02515550  0.01226245  0.58343546    -0.05000
C662        C  0.98980502  0.35051730  0.56431202    -0.32400
C663        C  0.97949597  0.34762214  0.52237595     0.36900
C664        C  0.00556748  0.01210234  0.99725597    -0.05300
C665        C  0.04136087  0.01521608  0.51630745    -0.32300
C666        C  0.05133902  0.01322837  0.55830927     0.36800
H667        H  0.96939701  0.35636091  0.58122845     0.17100
O668        O  0.94381272  0.34880887  0.00631287    -0.59800
H669        H  0.06238437  0.01933950  0.49933751     0.17200
O670        O  0.08700997  0.01221916  0.57421966    -0.59900
H671        H  0.09818345  0.03585330  0.56465713     0.44200
H672        H  0.93105720  0.33107395  0.52255846     0.44100
C673        C  0.99533424  0.33958906  0.45124168     0.30500
C674        C  0.97370415  0.66169333  0.37125445     0.30500
C675        C  0.96907549  0.36930776  0.42946410    -0.05700
C676        C  0.02615547  0.34045107  0.42406972    -0.06500
C677        C  0.97464785  0.63371624  0.43947691    -0.06300
C678        C  0.95494867  0.35912558  0.39100780    -0.05700
C679        C  0.01338041  0.67086307  0.38218903    -0.06500
C680        C  0.97042958  0.62661634  0.39818899    -0.06300
C681        C  0.91930518  0.36755419  0.38676668    -0.31700
N682        N  0.91451138  0.39521336  0.41195112     0.14800
C683        C  0.94509183  0.39510828  0.44011340    -0.31700
H684        H  0.94942083  0.41229776  0.46690452     0.16700
C685        C  0.04022331  0.65749764  0.36376030    -0.30700
N686        N  0.06936410  0.65128222  0.39176662     0.13500
C687        C  0.06113456  0.65961645  0.42828361    -0.30700
C688        C  0.94565721  0.59926417  0.38959144    -0.31000
N689        N  0.92537246  0.59581706  0.41717681     0.14000
H690        H  0.94465903  0.58009508  0.36568886     0.16600
C691        C  0.94335322  0.61511523  0.44981297    -0.31000
H692        H  0.93415809  0.61622308  0.47813692     0.16600
H693        H  0.07893685  0.65290908  0.45580524     0.16600
H694        H  0.89786457  0.35716016  0.36426773     0.16700
H695        H  0.03790031  0.65059859  0.33229992     0.16600
O696        O  0.95546877  0.47057770  0.31285319    -0.80400
O697        O  0.79840203  0.45143600  0.32755138    -0.65100
O698        O  0.89149446  0.47777930  0.31261610    -1.11700
C699        C  0.89647990  0.56837055  0.40772899     1.06500
O700        O  0.78830871  0.51519657  0.32545741    -0.78300
O701        O  0.84081604  0.55690567  0.30071057    -0.65900
Ni702      Ni  0.91821024  0.43623399  0.32342585     1.34900
C703        C  0.87152857  0.57017642  0.29761138     0.85200
O704        O  0.84755472  0.41544545  0.28502583    -0.78800
O705        O  0.90266384  0.41967765  0.27002825    -0.89100
C706        C  0.77734630  0.48003094  0.32231673     0.84800
O707        O  0.92457103  0.44954762  0.37747213    -0.67300
O708        O  0.86767288  0.57769057  0.38353803    -0.86600
C709        C  0.90097739  0.42842915  0.38953896     0.85600
C710        C  0.87311256  0.40081374  0.26918780     1.07200
H711        H  0.85014141  0.48991602  0.38584697     0.39000
O712        O  0.85292642  0.50035056  0.35986618    -1.09200
O713        O  0.89751730  0.55580369  0.32216326    -0.65900
Ni714      Ni  0.90068143  0.50879235  0.35845882     1.26300
O715        O  0.86872096  0.42712631  0.36838748    -0.66100
O716        O  0.90637608  0.53466507  0.40806926    -0.78400
C717        C  0.96480902  0.50186221  0.33158060     0.85000
O718        O  0.94969447  0.51452422  0.35852625    -0.65600
Ni719      Ni  0.82798511  0.54517884  0.35272689     1.27400
Ni720      Ni  0.84739566  0.46037682  0.32141264     1.26100
H721        H  0.89117965  0.49041913  0.28687101     0.39600
C722        C  0.87442995  0.61118141  0.27638798     0.30500
C723        C  0.87335663  0.35644019  0.26461812     0.30500
C724        C  0.90353659  0.63493074  0.30225956    -0.05700
C725        C  0.88287690  0.62571996  0.23386763    -0.06500
C726        C  0.83889579  0.63104498  0.27772498    -0.06300
C727        C  0.90309043  0.34083363  0.29676275    -0.05700
C728        C  0.88058385  0.33381555  0.22759025    -0.06500
C729        C  0.83899131  0.33711701  0.27313311    -0.06300
C730        C  0.93830476  0.35378261  0.30880912    -0.31700
N731        N  0.95863277  0.65864664  0.32723622     0.14800
C732        C  0.93935409  0.62735268  0.31268186    -0.31700
H733        H  0.95116966  0.60039642  0.30860757     0.16700
C734        C  0.90608998  0.34503813  0.20498929    -0.30700
N735        N  0.92529911  0.64833716  0.19817877     0.13500
C736        C  0.91246621  0.61687713  0.21624706    -0.30700
C737        C  0.80417896  0.34680232  0.25878368    -0.31000
N738        N  0.78243033  0.64853132  0.25545896     0.14000
H739        H  0.79568752  0.37492389  0.24812253     0.16600
C740        C  0.80333784  0.61828860  0.26536844    -0.31000
H741        H  0.79357838  0.58912918  0.26032312     0.16600
H742        H  0.92716819  0.59093213  0.22239309     0.16600
H743        H  0.94734708  0.38333539  0.31047976     0.16700
H744        H  0.91509983  0.37438283  0.20155799     0.16600
C745        C  0.05645855  0.65920608  0.20934683     0.30500
C746        C  0.03489017  0.67219407  0.12945847     0.30500
C747        C  0.05436607  0.62363006  0.18302487    -0.05700
C748        C  0.01790845  0.67117737  0.19902374    -0.06500
C749        C  0.07815767  0.35540066  0.18834656    -0.06300
C750        C  0.05132579  0.63183823  0.14160789    -0.05700
C751        C  0.00496978  0.67513632  0.15705014    -0.06500
C752        C  0.06434740  0.36646396  0.15021848    -0.06300
C753        C  0.08197975  0.61369949  0.13251723    -0.31700
N754        N  0.09715296  0.59273029  0.16512885     0.14800
C755        C  0.07583411  0.59440106  0.19162570    -0.31700
H756        H  0.07631698  0.57506062  0.21649200     0.16700
C757        C  0.96894872  0.66227360  0.15303961    -0.30700
N758        N  0.96031793  0.65354089  0.18960020     0.13500
C759        C  0.98998039  0.65830097  0.21753828    -0.30700
C760        C  0.08788920  0.39482464  0.14006784    -0.31000
N761        N  0.11807847  0.39605984  0.16872021     0.14000
H762        H  0.08335665  0.41341401  0.11386378     0.16600
C763        C  0.11373569  0.36609265  0.19298227    -0.31000
H764        H  0.13482148  0.35698901  0.21624402     0.16600
H765        H  0.99180625  0.65041090  0.24893835     0.16600
H766        H  0.09327192  0.61696474  0.10551502     0.16700
H767        H  0.95051500  0.65652276  0.12561470     0.16600
O768        O  0.07639257  0.45871526  0.27471588    -0.80400
O769        O  0.23019795  0.46138091  0.24986543    -0.65100
O770        O  0.13850778  0.47484484  0.27114023    -1.11700
C771        C  0.12649758  0.56814296  0.17620788     1.06500
O772        O  0.23791429  0.52567061  0.25688720    -0.78300
O773        O  0.18333251  0.55477315  0.28313038    -0.65900
Ni774      Ni  0.11386840  0.43033436  0.26129011     1.34900
C775        C  0.15357972  0.56778995  0.28584277     0.85200
O776        O  0.18510888  0.41599670  0.29561422    -0.78800
O777        O  0.13154474  0.41494607  0.31436232    -0.89100
C778        C  0.24991337  0.49236430  0.25331863     0.84800
O779        O  0.10480393  0.44458982  0.20697801    -0.67300
O780        O  0.15500175  0.58006502  0.20028655    -0.86600
C781        C  0.12936731  0.42876624  0.19306215     0.85600
C782        C  0.16057967  0.39842624  0.31291292     1.07200
H783        H  0.17619318  0.49642460  0.19542886     0.39000
O784        O  0.17365778  0.50457500  0.22191738    -1.09200
O785        O  0.12731419  0.55323279  0.26099998    -0.65900
Ni786      Ni  0.12584999  0.50650953  0.22568720     1.26300
O787        O  0.16178150  0.43064395  0.21318557    -0.66100
O788        O  0.11718691  0.53354606  0.17645512    -0.78400
C789        C  0.06605773  0.49057021  0.25849809     0.85000
O790        O  0.07704705  0.50499767  0.22834739    -0.65600
Ni791      Ni  0.19660085  0.55162617  0.23061573     1.27400
Ni792      Ni  0.18239762  0.46346970  0.25990221     1.26100
H793        H  0.13941680  0.48635903  0.29710630     0.39600
C794        C  0.15334874  0.60886119  0.30550039     0.30500
C795        C  0.15896483  0.35396639  0.31618509     0.30500
C796        C  0.12599246  0.63263069  0.27866383    -0.05700
C797        C  0.14511210  0.62294858  0.34755818    -0.06500
C798        C  0.19017163  0.62916646  0.30383598    -0.06300
C799        C  0.12836388  0.33854277  0.28378888    -0.05700
C800        C  0.15015642  0.33077799  0.35335794    -0.06500
C801        C  0.19219978  0.33497105  0.30774169    -0.06300
C802        C  0.09361357  0.35087807  0.27126801    -0.31700
N803        N  0.07199531  0.65560941  0.25318173     0.14800
C804        C  0.08999547  0.62439806  0.26754474    -0.31700
H805        H  0.07687324  0.59754622  0.27344788     0.16700
C806        C  0.12561032  0.34196907  0.37616562    -0.30700
N807        N  0.10406137  0.64553024  0.38317726     0.13500
C808        C  0.11459251  0.61427841  0.36501387    -0.30700
C809        C  0.22764375  0.34633960  0.31074641    -0.31000
N810        N  0.24769067  0.64866398  0.30885663     0.14000
H811        H  0.23850042  0.37520517  0.31522095     0.16600
C812        C  0.22550712  0.61755150  0.30610287    -0.31000
H813        H  0.23514893  0.58891889  0.30639708     0.16600
H814        H  0.09793191  0.58868650  0.35877097     0.16600
H815        H  0.08526629  0.37995639  0.27034058     0.16700
H816        H  0.11896393  0.37137236  0.37971856     0.16600
C817        C  0.55194448  0.48179948  0.18673676     0.30500
C818        C  0.53292480  0.49676235  0.10685087     0.30500
C819        C  0.54518422  0.44579765  0.16012843    -0.05700
C820        C  0.51577268  0.50036364  0.17585806    -0.06500
C821        C  0.57770387  0.50696550  0.16622080    -0.06300
C822        C  0.54427664  0.45430173  0.11875835    -0.05700
C823        C  0.50385258  0.50465078  0.13382532    -0.06500
C824        C  0.56546581  0.51980818  0.12828203    -0.06300
C825        C  0.57436390  0.43377701  0.11145285    -0.31700
N826        N  0.58594361  0.41043202  0.14358230     0.14800
C827        C  0.56336003  0.41370909  0.16864519    -0.31700
H828        H  0.56334609  0.39545538  0.19433738     0.16700
C829        C  0.46678801  0.49701222  0.12883258    -0.30700
N830        N  0.45662925  0.49271493  0.16507313     0.13500
C831        C  0.48607966  0.49382227  0.19372675    -0.30700
C832        C  0.58850363  0.55018368  0.12209081    -0.31000
N833        N  0.61660130  0.55153415  0.15349863     0.14000
H834        H  0.58386057  0.57126215  0.09808446     0.16600
C835        C  0.61225696  0.52017928  0.17577718    -0.31000
H836        H  0.63145726  0.51253534  0.20158487     0.16600
H837        H  0.48607863  0.48772923  0.22514553     0.16600
H838        H  0.58846898  0.43808767  0.08669413     0.16700
H839        H  0.44853271  0.49078897  0.10137424     0.16600
O840        O  0.56672074  0.60873960  0.25977326    -0.80400
O841        O  0.72459330  0.61803764  0.24139735    -0.65100
O842        O  0.63049090  0.62955028  0.25777559    -1.11700
C843        C  0.61536266  0.38609903  0.15732933     1.06500
O844        O  0.73164267  0.34900219  0.23283683    -0.78300
O845        O  0.67913514  0.38348917  0.25944734    -0.65900
Ni846      Ni  0.60663856  0.58409675  0.24711288     1.34900
C847        C  0.64887512  0.39250191  0.26603356     0.85200
O848        O  0.67708147  0.57281949  0.28509860    -0.78800
O849        O  0.62210260  0.56993883  0.30048228    -0.89100
C850        C  0.74428580  0.64908917  0.24206453     0.84800
O851        O  0.59913076  0.59775194  0.19245157    -0.67300
O852        O  0.64523665  0.39937544  0.17746738    -0.86600
C853        C  0.62527823  0.58323212  0.17992862     0.85600
C854        C  0.65151211  0.55423296  0.30010676     1.07200
H855        H  0.66641095  0.31487486  0.18114072     0.39000
O856        O  0.66508929  0.32515253  0.20713276    -1.09200
O857        O  0.62136637  0.37447676  0.24629554    -0.65900
Ni858      Ni  0.61719371  0.32698745  0.21242007     1.26300
O859        O  0.65682492  0.58518661  0.20215519    -0.66100
O860        O  0.60586360  0.35203535  0.16225291    -0.78400
C861        C  0.55914230  0.64282815  0.24910523     0.85000
O862        O  0.56860958  0.32517001  0.21832135    -0.65600
Ni863      Ni  0.68828696  0.37256452  0.20693655     1.27400
Ni864      Ni  0.67510643  0.61940838  0.24806008     1.26100
H865        H  0.63050547  0.64111797  0.28352902     0.39600
C866        C  0.64718097  0.43230867  0.28715137     0.30500
C867        C  0.64962019  0.50991611  0.30109162     0.30500
C868        C  0.62015486  0.45615732  0.26005185    -0.05700
C869        C  0.63802330  0.44380888  0.32932757    -0.06500
C870        C  0.68339364  0.45411464  0.28750231    -0.06300
C871        C  0.62024050  0.49483131  0.26722800    -0.05700
C872        C  0.64134335  0.48464237  0.33696973    -0.06500
C873        C  0.68351857  0.49326102  0.29274814    -0.06300
C874        C  0.58565888  0.50620904  0.25132887    -0.31700
N875        N  0.56654965  0.47712005  0.23059183     0.14800
C876        C  0.58570367  0.44643885  0.24399136    -0.31700
H877        H  0.57360511  0.41950792  0.25014032     0.16700
C878        C  0.61662158  0.49307133  0.36048434    -0.30700
N879        N  0.59684405  0.46153599  0.36658080     0.13500
C880        C  0.60850360  0.43215306  0.34672630    -0.30700
C881        C  0.71775343  0.50483239  0.30751647    -0.31000
N882        N  0.73946301  0.47494870  0.31037461     0.14000
H883        H  0.72603036  0.53304029  0.31882071     0.16600
C884        C  0.71885020  0.44330715  0.30000302    -0.31000
H885        H  0.72862864  0.41460487  0.30387588     0.16600
H886        H  0.59309155  0.40602841  0.33928585     0.16600
H887        H  0.57596853  0.53471015  0.25087203     0.16700
H888        H  0.60836111  0.52169984  0.36505602     0.16600
C889        C  0.49219467  0.50910167  0.42895553     0.30500
C890        C  0.47400221  0.50901698  0.34819987     0.30500
C891        C  0.48356869  0.54980843  0.40727731    -0.05700
C892        C  0.51904606  0.48928505  0.40505233    -0.04100
C893        C  0.45752661  0.48629530  0.41313081    -0.06300
C894        C  0.48362517  0.54929820  0.36544128    -0.05700
C895        C  0.50774403  0.48836892  0.36378394    -0.06500
C896        C  0.44617116  0.49223618  0.37301174    -0.06300
C897        C  0.46662453  0.58039168  0.34871809    -0.31700
N898        N  0.44311830  0.59119542  0.37062214     0.14800
C899        C  0.45337953  0.57373054  0.40742020    -0.31700
H900        H  0.43754427  0.57423522  0.43086155     0.16700
C901        C  0.53421820  0.47463065  0.34564741    -0.30700
N902        N  0.56171044  0.46451172  0.37439383     0.13500
C903        C  0.55308917  0.47329003  0.41070289    -0.30700
C904        C  0.41081635  0.48171282  0.36555073    -0.31000
N905        N  0.40395807  0.45685142  0.39393322     0.14000
H906        H  0.39151095  0.48771346  0.33937336     0.16600
C907        C  0.43232872  0.46064312  0.42489726    -0.31000
H908        H  0.43555666  0.44411653  0.45259508     0.16600
H909        H  0.57135893  0.46949132  0.43860441     0.16600
H910        H  0.46720688  0.59015952  0.31890388     0.16700
H911        H  0.53531479  0.47642322  0.31395230     0.16600
O912        O  0.47557695  0.65678865  0.30725715    -0.80400
O913        O  0.30715002  0.62418816  0.31642691    -0.65100
O914        O  0.40003098  0.65760954  0.29062055    -1.11700
C915        C  0.38802976  0.42168880  0.37697888     1.06500
O916        O  0.29558570  0.34812770  0.28908235    -0.78300
O917        O  0.34655481  0.39477779  0.26966970    -0.65900
Ni918      Ni  0.43809167  0.62662166  0.27715755     1.34900
C919        C  0.37591631  0.41292883  0.27131343     0.85200
O920        O  0.35520682  0.58827209  0.27451500    -0.78800
O921        O  0.40210147  0.59563606  0.24279292    -0.89100
C922        C  0.28490881  0.65104467  0.30510443     0.84800
O923        O  0.41222971  0.63074350  0.31848571    -0.67300
O924        O  0.35842576  0.42311100  0.35144824    -0.86600
C925        C  0.41176777  0.61127569  0.35021439     0.85600
C926        C  0.37593424  0.57557689  0.25155403     1.07200
H927        H  0.35604550  0.33945092  0.36440265     0.39000
O928        O  0.35865337  0.34627287  0.33720418    -1.09200
O929        O  0.40118473  0.40280318  0.29846630    -0.65900
Ni930      Ni  0.40663507  0.35944638  0.33552196     1.26300
O931        O  0.38002112  0.60763065  0.35572177    -0.66100
O932        O  0.40796932  0.39298167  0.37949104    -0.78400
C933        C  0.47949859  0.68849460  0.32546213     0.85000
O934        O  0.45486201  0.37254356  0.33658690    -0.65600
Ni935      Ni  0.32729958  0.38499073  0.31873809     1.27400
Ni936      Ni  0.35524531  0.63523359  0.30549251     1.26100
H937        H  0.39236332  0.67239061  0.26614476     0.39600
C938        C  0.37705389  0.45397131  0.25342743     0.30500
C939        C  0.37513225  0.53207756  0.24358632     0.30500
C940        C  0.40842613  0.47755437  0.27631707    -0.05700
C941        C  0.38024138  0.46853874  0.20976902    -0.06500
C942        C  0.34351677  0.47327776  0.26144427    -0.06300
C943        C  0.40673533  0.51645570  0.27170058    -0.05700
C944        C  0.37857248  0.51009743  0.20447950    -0.06500
C945        C  0.34315988  0.51241421  0.25695645    -0.06300
C946        C  0.44066897  0.53053140  0.28343305    -0.31700
N947        N  0.46104840  0.50396827  0.30463201     0.14800
C948        C  0.44322198  0.47041493  0.29380055    -0.31700
H949        H  0.45159600  0.44353471  0.30751122     0.16700
C950        C  0.40355501  0.52033521  0.18059645    -0.30700
N951        N  0.42115027  0.48945567  0.17224261     0.13500
C952        C  0.40747165  0.45835000  0.18954812    -0.30700
C953        C  0.30837992  0.52277266  0.25227958    -0.31000
N954        N  0.28749352  0.49132931  0.25533212     0.14000
H955        H  0.29854105  0.55106126  0.24444649     0.16600
C956        C  0.30810798  0.46070920  0.25937308    -0.31000
H957        H  0.29715012  0.43185073  0.25836759     0.16600
H958        H  0.42141225  0.43180890  0.19489897     0.16600
H959        H  0.45151352  0.55560552  0.27048499     0.16700
H960        H  0.41399651  0.54924173  0.17796147     0.16600
C961        C  0.54672673  0.66715831  0.27746392    -0.05000
C962        C  0.52876193  0.69996872  0.26318425    -0.32400
C963        C  0.51630951  0.72337894  0.28999114     0.36900
C964        C  0.51408905  0.70769781  0.32803975    -0.05300
C965        C  0.54139137  0.68378934  0.34530642    -0.32300
C966        C  0.55655081  0.66126013  0.31949928     0.36800
H967        H  0.52276457  0.70656137  0.23136659     0.17100
O968        O  0.49504880  0.75255087  0.27448540    -0.59800
H969        H  0.54426875  0.67576358  0.37679304     0.17200
O970        O  0.57850962  0.63245116  0.33522597    -0.59900
H971        H  0.60184809  0.64528831  0.34553036     0.44200
H972        H  0.51061396  0.77034543  0.26175628     0.44100
C973        C  0.50312877  0.51079682  0.97510216    -0.05000
C974        C  0.53911244  0.50915474  0.99372838    -0.32400
C975        C  0.54920820  0.50406956  0.03558257     0.36900
C976        C  0.52343597  0.50536805  0.06100004    -0.05300
C977        C  0.48890374  0.51582104  0.04249012    -0.32300
C978        C  0.47821690  0.51671699  0.00050385     0.36800
H979        H  0.56001484  0.51302753  0.97631688     0.17100
O980        O  0.58479387  0.50138582  0.05152687    -0.59800
H981        H  0.46967120  0.52450377  0.05971507     0.17200
O982        O  0.44309605  0.52293296  0.48482228    -0.59900
H983        H  0.43785380  0.54816381  0.99493743     0.44200
H984        H  0.59433157  0.48180102  0.03577336     0.44100
C985        C  0.99261082  0.52520514  0.32021440    -0.05000
C986        C  0.98715681  0.53614753  0.27968518    -0.32400
C987        C  0.01368011  0.52930261  0.25790338     0.36900
C988        C  0.04497851  0.51361028  0.27860165    -0.05300
C989        C  0.05360556  0.51457942  0.32059121    -0.32300
C990        C  0.02678745  0.52041551  0.34210034     0.36800
H991        H  0.96046527  0.54120338  0.26361658     0.17100
O992        O  0.00604957  0.52987543  0.21669800    -0.59800
H993        H  0.07909929  0.50480104  0.33628260     0.17200
O994        O  0.03198639  0.51114373  0.38228257    -0.59900
H995        H  0.03105529  0.53569423  0.39614573     0.44200
H996        H  0.00725317  0.55725393  0.20887431     0.44100
C997        C  0.02515707  0.34559011  0.08344521    -0.05000
C998        C  0.98980440  0.68384953  0.06431174    -0.32400
C999        C  0.97949641  0.68095090  0.02237557     0.36900
C1000       C  0.00556532  0.34543997  0.49724992    -0.05300
C1001       C  0.04136181  0.34854727  0.01631658    -0.32300
C1002       C  0.05134027  0.34655709  0.05831879     0.36800
H1003       H  0.96939584  0.68969385  0.08122722     0.17100
O1004       O  0.94381725  0.68214421  0.50631205    -0.59800
H1005       H  0.06238528  0.35267160  0.99934665     0.17200
O1006       O  0.08701129  0.34554901  0.07422965    -0.59900
H1007       H  0.09818298  0.36918638  0.06467172     0.44200
H1008       H  0.93106019  0.66439421  0.02255584     0.44100
C1009       C  0.99532480  0.33959185  0.95124476     0.30500
C1010       C  0.97370274  0.66169584  0.87124663     0.30500
C1011       C  0.96906227  0.36930897  0.92946710    -0.05700
C1012       C  0.02614718  0.34045571  0.92407408    -0.06500
C1013       C  0.97464491  0.63371586  0.93946852    -0.06300
C1014       C  0.95493845  0.35912875  0.89100945    -0.05700
C1015       C  0.01338071  0.67085829  0.88218184    -0.06500
C1016       C  0.97042223  0.62661953  0.89817968    -0.06300
C1017       C  0.91929401  0.36755495  0.88676373    -0.31700
N1018       N  0.91449650  0.39521385  0.91194647     0.14800
C1019       C  0.94507440  0.39510719  0.94011374    -0.31700
H1020       H  0.94939800  0.41229249  0.96690768     0.16700
C1021       C  0.04022297  0.65749413  0.86375094    -0.30700
N1022       N  0.06936524  0.65127944  0.89175579     0.13500
C1023       C  0.06113719  0.65961253  0.92827385    -0.30700
C1024       C  0.94564695  0.59926998  0.88958136    -0.31000
N1025       N  0.92536685  0.59581847  0.91717091     0.14000
H1026       H  0.94464772  0.58010043  0.86567860     0.16600
C1027       C  0.94335224  0.61511296  0.94980784    -0.31000
H1028       H  0.93416279  0.61621608  0.97813553     0.16600
H1029       H  0.07894187  0.65290601  0.95579375     0.16600
H1030       H  0.89785649  0.35716197  0.86426007     0.16700
H1031       H  0.03789888  0.65059621  0.83229016     0.16600
O1032       O  0.95546213  0.47056987  0.81284685    -0.80400
O1033       O  0.79839626  0.45143710  0.82753582    -0.65100
O1034       O  0.89148723  0.47778163  0.81260332    -1.11700
C1035       C  0.89647476  0.56837091  0.90772232     1.06500
O1036       O  0.78830319  0.51519775  0.82545053    -0.78300
O1037       O  0.84080552  0.55691795  0.80070592    -0.65900
Ni1038     Ni  0.91819881  0.43623339  0.82341406     1.34900
C1039       C  0.87151851  0.57018600  0.79760449     0.85200
O1040       O  0.84754875  0.41544562  0.78501233    -0.78800
O1041       O  0.90265691  0.41968177  0.77001408    -0.89100
C1042       C  0.77734153  0.48003211  0.82229798     0.84800
O1043       O  0.92456039  0.44954502  0.87746173    -0.67300
O1044       O  0.86766642  0.57769171  0.88353406    -0.86600
C1045       C  0.90096546  0.42842910  0.88952942     0.85600
C1046       C  0.87310675  0.40081644  0.76917172     1.07200
H1047       H  0.85013662  0.48991743  0.88583499     0.39000
O1048       O  0.85292007  0.50035273  0.85985405    -1.09200
O1049       O  0.89750838  0.55580821  0.82215101    -0.65900
Ni1050     Ni  0.90067457  0.50879501  0.85844552     1.26300
O1051       O  0.86871013  0.42712710  0.86837561    -0.66100
O1052       O  0.90637180  0.53466594  0.90805776    -0.78400
C1053       C  0.96480423  0.50185510  0.83157140     0.85000
O1054       O  0.94968704  0.51452614  0.85851076    -0.65600
Ni1055     Ni  0.82797838  0.54518084  0.85272175     1.27400
Ni1056     Ni  0.84738877  0.46037838  0.82139943     1.26100
H1057       H  0.89117303  0.49042080  0.78685804     0.39600
C1058       C  0.87442166  0.61119154  0.77638207     0.30500
C1059       C  0.87335493  0.35644330  0.76460025     0.30500
C1060       C  0.90352934  0.63494022  0.80225335    -0.05700
C1061       C  0.88286969  0.62572568  0.73386193    -0.06500
C1062       C  0.83888836  0.63105793  0.77771534    -0.06300
C1063       C  0.90308469  0.34083865  0.79675175    -0.05700
C1064       C  0.88058953  0.33381682  0.72757604    -0.06500
C1065       C  0.83898785  0.33711996  0.77310603    -0.06300
C1066       C  0.93829697  0.35379074  0.80880842    -0.31700
N1067       N  0.95862840  0.65865204  0.82722824     0.14800
C1068       C  0.93934672  0.62735977  0.81267396    -0.31700
H1069       H  0.95116024  0.60040246  0.80859808     0.16700
C1070       C  0.90609815  0.34503835  0.70497783    -0.30700
N1071       N  0.92529339  0.64833021  0.69817184     0.13500
C1072       C  0.91245587  0.61687415  0.71624140    -0.30700
C1073       C  0.80417729  0.34680435  0.75874652    -0.31000
N1074       N  0.78242463  0.64854329  0.75543575     0.14000
H1075       H  0.79568754  0.37492480  0.74807914     0.16600
C1076       C  0.80333125  0.61830146  0.76535352    -0.31000
H1077       H  0.79357213  0.58914162  0.76031105     0.16600
H1078       H  0.92715342  0.59092628  0.72238895     0.16600
H1079       H  0.94733630  0.38334433  0.81048346     0.16700
H1080       H  0.91510808  0.37438282  0.70154531     0.16600
C1081       C  0.05645360  0.65920307  0.70934283     0.30500
C1082       C  0.03488348  0.67219779  0.62945657     0.30500
C1083       C  0.05436469  0.62363016  0.68301739    -0.05700
C1084       C  0.01790148  0.67116721  0.69902161    -0.06500
C1085       C  0.07816606  0.35540278  0.68834504    -0.06300
C1086       C  0.05132513  0.63184305  0.64160209    -0.05700
C1087       C  0.00496270  0.67513166  0.65704844    -0.06500
C1088       C  0.06435914  0.36646320  0.65021416    -0.06300
C1089       C  0.08198226  0.61370876  0.63251304    -0.31700
N1090       N  0.09715371  0.59273405  0.66512246     0.14800
C1091       C  0.07583148  0.59439977  0.69161638    -0.31700
H1092       H  0.07631328  0.57505727  0.71648109     0.16700
C1093       C  0.96894249  0.66226757  0.65303496    -0.30700
N1094       N  0.96031248  0.65352536  0.68959353     0.13500
C1095       C  0.98997467  0.65828131  0.71753279    -0.30700
C1096       C  0.08790850  0.39481284  0.64005758    -0.31000
N1097       N  0.11809591  0.39604855  0.66871213     0.14000
H1098       H  0.08338194  0.41339554  0.61384795     0.16600
C1099       C  0.11374619  0.36608780  0.69298051    -0.31000
H1100       H  0.13482896  0.35698528  0.71624658     0.16600
H1101       H  0.99180046  0.65038563  0.74893140     0.16600
H1102       H  0.09327818  0.61698269  0.60551400     0.16700
H1103       H  0.95050777  0.65652416  0.62560895     0.16600
O1104       O  0.07639427  0.45870197  0.77469092    -0.80400
O1105       O  0.23020652  0.46138249  0.74986231    -0.65100
O1106       O  0.13851057  0.47484040  0.77112356    -1.11700
C1107       C  0.12650027  0.56814770  0.67620268     1.06500
O1108       O  0.23791912  0.52567311  0.75688144    -0.78300
O1109       O  0.18332936  0.55475844  0.78312807    -0.65900
Ni1110     Ni  0.11387606  0.43032843  0.76127242     1.34900
C1111       C  0.15357720  0.56777919  0.78583600     0.85200
O1112       O  0.18510892  0.41599315  0.79560308    -0.78800
O1113       O  0.13154397  0.41494649  0.81434833    -0.89100
C1114       C  0.24992043  0.49236712  0.75331651     0.84800
O1115       O  0.10481794  0.44458358  0.70696012    -0.67300
O1116       O  0.15500170  0.58006793  0.70028773    -0.86600
C1117       C  0.12938285  0.42875935  0.69304775     0.85600
C1118       C  0.16057876  0.39842594  0.81290429     1.07200
H1119       H  0.17620238  0.49642668  0.69541752     0.39000
O1120       O  0.17366398  0.50457465  0.72190615    -1.09200
O1121       O  0.12731343  0.55322623  0.76098802    -0.65900
Ni1122     Ni  0.12585392  0.50650660  0.72567191     1.26300
O1123       O  0.16179616  0.43064124  0.71317218    -0.66100
O1124       O  0.11719268  0.53354945  0.67644248    -0.78400
C1125       C  0.06605759  0.49055702  0.75847643     0.85000
O1126       O  0.07704978  0.50499179  0.72833016    -0.65600
Ni1127     Ni  0.19660269  0.55162739  0.73061421     1.27400
Ni1128     Ni  0.18240282  0.46346782  0.75989118     1.26100
H1129       H  0.13941707  0.48635333  0.79708941     0.39600
C1130       C  0.15334786  0.60885179  0.80548909     0.30500
C1131       C  0.15896132  0.35396684  0.81618514     0.30500
C1132       C  0.12599107  0.63262153  0.77865216    -0.05700
C1133       C  0.14511227  0.62294085  0.84754693    -0.06500
C1134       C  0.19017186  0.62915516  0.80382229    -0.06300
C1135       C  0.12836109  0.33854162  0.78379030    -0.05700
C1136       C  0.15015165  0.33078082  0.85336015    -0.06500
C1137       C  0.19219537  0.33497184  0.80774337    -0.06300
C1138       C  0.09361222  0.35087875  0.77126697    -0.31700
N1139       N  0.07199302  0.65560429  0.75317696     0.14800
C1140       C  0.08999256  0.62439147  0.76753732    -0.31700
H1141       H  0.07686940  0.59753985  0.77343964     0.16700
C1142       C  0.12560519  0.34197306  0.87616783    -0.30700
N1143       N  0.10406196  0.64552614  0.88316488     0.13500
C1144       C  0.11459267  0.61427269  0.86500366    -0.30700
C1145       C  0.22763757  0.34634486  0.81074900    -0.31000
N1146       N  0.24769267  0.64865352  0.80884820     0.14000
H1147       H  0.23849112  0.37521145  0.81522459     0.16600
C1148       C  0.22550838  0.61754044  0.80608857    -0.31000
H1149       H  0.23514975  0.58890794  0.80637880     0.16600
H1150       H  0.09793218  0.58868033  0.85876365     0.16600
H1151       H  0.08526580  0.37995741  0.77033725     0.16700
H1152       H  0.11895835  0.37137663  0.87971799     0.16600
C1153       C  0.55193767  0.48179398  0.68673342     0.30500
C1154       C  0.53291093  0.49676296  0.60685020     0.30500
C1155       C  0.54517296  0.44579347  0.66012351    -0.05700
C1156       C  0.51576688  0.50035955  0.67586127    -0.06500
C1157       C  0.57769578  0.50696171  0.66621596    -0.06300
C1158       C  0.54426193  0.45430168  0.61875340    -0.05700
C1159       C  0.50384349  0.50465018  0.63382892    -0.06500
C1160       C  0.56545272  0.51980692  0.62827940    -0.06300
C1161       C  0.57434968  0.43378163  0.61144333    -0.31700
N1162       N  0.58593494  0.41043652  0.64357067     0.14800
C1163       C  0.56335216  0.41370624  0.66863533    -0.31700
H1164       H  0.56334246  0.39545003  0.69432609     0.16700
C1165       C  0.46678136  0.49700513  0.62883819    -0.30700
N1166       N  0.45662607  0.49270114  0.66507856     0.13500
C1167       C  0.48607635  0.49381027  0.69373169    -0.30700
C1168       C  0.58848438  0.55018662  0.62208650    -0.31000
N1169       N  0.61658570  0.55153765  0.65348923     0.14000
H1170       H  0.58383205  0.57126995  0.59808582     0.16600
C1171       C  0.61224733  0.52018208  0.67576949    -0.31000
H1172       H  0.63145172  0.51254074  0.70157424     0.16600
H1173       H  0.48607732  0.48771077  0.72514984     0.16600
H1174       H  0.58845265  0.43809824  0.58668364     0.16700
H1175       H  0.44852495  0.49077953  0.60138160     0.16600
O1176       O  0.56671242  0.60873896  0.75975548    -0.80400
O1177       O  0.72458747  0.61804708  0.74137574    -0.65100
O1178       O  0.63048472  0.62955221  0.75776194    -1.11700
C1179       C  0.61535765  0.38610655  0.65731012     1.06500
O1180       O  0.73164072  0.34900298  0.73279753    -0.78300
O1181       O  0.67913432  0.38347317  0.75943231    -0.65900
Ni1182     Ni  0.60663171  0.58409867  0.74709447     1.34900
C1183       C  0.64887454  0.39249266  0.76601327     0.85200
O1184       O  0.67707819  0.57282116  0.78507548    -0.78800
O1185       O  0.62209993  0.56993293  0.80046150    -0.89100
C1186       C  0.74427970  0.64909930  0.74204099     0.84800
O1187       O  0.59912142  0.59776136  0.69243673    -0.67300
O1188       O  0.64522719  0.39938255  0.67745878    -0.86600
C1189       C  0.62526679  0.58323852  0.67991343     0.85600
C1190       C  0.65151036  0.55422956  0.80008128     1.07200
H1191       H  0.66641117  0.31487351  0.68111103     0.39000
O1192       O  0.66508642  0.32515128  0.70710207    -1.09200
O1193       O  0.62136521  0.37447486  0.74626542    -0.65900
Ni1194     Ni  0.61718933  0.32698691  0.71238542     1.26300
O1195       O  0.65681505  0.58519364  0.70213669    -0.66100
O1196       O  0.60586503  0.35203871  0.66221880    -0.78400
C1197       C  0.55913541  0.64282929  0.74909161     0.85000
O1198       O  0.56860366  0.32517182  0.71828582    -0.65600
Ni1199     Ni  0.68828107  0.37256726  0.70691394     1.27400
Ni1200     Ni  0.67510017  0.61941371  0.74804230     1.26100
H1201       H  0.63049981  0.64111672  0.78351689     0.39600
C1202       C  0.64718332  0.43230262  0.78712795     0.30500
C1203       C  0.64962313  0.50991165  0.80106347     0.30500
C1204       C  0.62015204  0.45614979  0.76003398    -0.05700
C1205       C  0.63803599  0.44380499  0.82930806    -0.06500
C1206       C  0.68339333  0.45410966  0.78746666    -0.06300
C1207       C  0.62023662  0.49482374  0.76721094    -0.05700
C1208       C  0.64135927  0.48463887  0.83694795    -0.06500
C1209       C  0.68351688  0.49325853  0.79270311    -0.06300
C1210       C  0.58565342  0.50620040  0.75132214    -0.31700
N1211       N  0.56654362  0.47711134  0.73058701     0.14800
C1212       C  0.58570015  0.44643050  0.74398152    -0.31700
H1213       H  0.57360495  0.41949866  0.75013199     0.16700
C1214       C  0.61664445  0.49307090  0.86046962    -0.30700
N1215       N  0.59686362  0.46153911  0.86656830     0.13500
C1216       C  0.60851792  0.43215345  0.84671265    -0.30700
C1217       C  0.71775158  0.50483389  0.80746323    -0.31000
N1218       N  0.73946071  0.47494948  0.81033765     0.14000
H1219       H  0.72602766  0.53304442  0.81875976     0.16600
C1220       C  0.71884916  0.44330478  0.79997705    -0.31000
H1221       H  0.72862635  0.41460268  0.80386801     0.16600
H1222       H  0.59310186  0.40603049  0.83927409     0.16600
H1223       H  0.57596477  0.53470257  0.75086426     0.16700
H1224       H  0.60838756  0.52170072  0.86504167     0.16600
C1225       C  0.49221843  0.50911052  0.92895484     0.30500
C1226       C  0.47402200  0.50903429  0.84819909     0.30500
C1227       C  0.48358494  0.54981972  0.90728113    -0.05700
C1228       C  0.51907093  0.48929999  0.90504601    -0.04100
C1229       C  0.45755484  0.48630034  0.91313093    -0.06300
C1230       C  0.48364261  0.54931405  0.86544560    -0.05700
C1231       C  0.50776836  0.48839178  0.86377689    -0.06500
C1232       C  0.44619694  0.49224375  0.87301326    -0.06300
C1233       C  0.46664296  0.58040785  0.84872391    -0.31700
N1234       N  0.44313034  0.59120423  0.87062285     0.14800
C1235       C  0.45339028  0.57373670  0.90742077    -0.31700
H1236       H  0.43755086  0.57423538  0.93085856     0.16700
C1237       C  0.53424130  0.47465556  0.84563668    -0.30700
N1238       N  0.56173047  0.46452318  0.87438080     0.13500
C1239       C  0.55311010  0.47329471  0.91069225    -0.30700
C1240       C  0.41084128  0.48172478  0.86555731    -0.31000
N1241       N  0.40398406  0.45686344  0.89394050     0.14000
H1242       H  0.39153396  0.48772916  0.83938266     0.16600
C1243       C  0.43235662  0.46065253  0.92490198    -0.31000
H1244       H  0.43558380  0.44412922  0.95260196     0.16600
H1245       H  0.57137668  0.46948010  0.93859324     0.16600
H1246       H  0.46722791  0.59017702  0.81891077     0.16700
H1247       H  0.53533869  0.47645566  0.81394213     0.16600
O1248       O  0.47558395  0.65679392  0.80724109    -0.80400
O1249       O  0.30715720  0.62418756  0.81642026    -0.65100
O1250       O  0.40003720  0.65761423  0.79060939    -1.11700
C1251       C  0.38805322  0.42170213  0.87698675     1.06500
O1252       O  0.29558353  0.34815416  0.78910397    -0.78300
O1253       O  0.34656830  0.39478740  0.76968286    -0.65900
Ni1254     Ni  0.43809651  0.62662673  0.77714269     1.34900
C1255       C  0.37592897  0.41294003  0.77132414     0.85200
O1256       O  0.35521279  0.58827885  0.77450603    -0.78800
O1257       O  0.40210357  0.59564351  0.74277785    -0.89100
C1258       C  0.28491227  0.65104119  0.80509962     0.84800
O1259       O  0.41223756  0.63074045  0.81847493    -0.67300
O1260       O  0.35844921  0.42312734  0.85145687    -0.86600
C1261       C  0.41177700  0.61127747  0.85020664     0.85600
C1262       C  0.37593827  0.57558393  0.75154364     1.07200
H1263       H  0.35605645  0.33946813  0.86441259     0.39000
O1264       O  0.35866331  0.34628985  0.83721381    -1.09200
O1265       O  0.40119998  0.40281566  0.79847438    -0.65900
Ni1266     Ni  0.40664856  0.35945747  0.83552845     1.26300
O1267       O  0.38003034  0.60763385  0.85571456    -0.66100
O1268       O  0.40799006  0.39299280  0.87949843    -0.78400
C1269       C  0.47950850  0.68849525  0.82545508     0.85000
O1270       O  0.45487944  0.37254707  0.83658712    -0.65600
Ni1271     Ni  0.32731311  0.38501130  0.81875296     1.27400
Ni1272     Ni  0.35525241  0.63523702  0.80548444     1.26100
H1273       H  0.39236617  0.67240041  0.76612761     0.39600
C1274       C  0.37706327  0.45398129  0.75343753     0.30500
C1275       C  0.37513812  0.53208459  0.74358573     0.30500
C1276       C  0.40843814  0.47756773  0.77631939    -0.05700
C1277       C  0.38024179  0.46854140  0.70977629    -0.06500
C1278       C  0.34352696  0.47328708  0.76145700    -0.06300
C1279       C  0.40674403  0.51646813  0.77170029    -0.05700
C1280       C  0.37857436  0.51009958  0.70448157    -0.06500
C1281       C  0.34316769  0.51242305  0.75696270    -0.06300
C1282       C  0.44067550  0.53055010  0.78343685    -0.31700
N1283       N  0.46106021  0.50398792  0.80463158     0.14800
C1284       C  0.44323612  0.47043253  0.79379948    -0.31700
H1285       H  0.45161330  0.44355195  0.80750686     0.16700
C1286       C  0.40355714  0.52033142  0.68059786    -0.30700
N1287       N  0.42114794  0.48944786  0.67224722     0.13500
C1288       C  0.40746662  0.45834529  0.68955309    -0.30700
C1289       C  0.30838628  0.52277871  0.75227934    -0.31000
N1290       N  0.28750137  0.49133462  0.75533381     0.14000
H1291       H  0.29854573  0.55106564  0.74444039     0.16600
C1292       C  0.30811827  0.46071650  0.75938132    -0.31000
H1293       H  0.29716227  0.43185732  0.75837665     0.16600
H1294       H  0.42140391  0.43180220  0.69490434     0.16600
H1295       H  0.45151499  0.55562948  0.77049385     0.16700
H1296       H  0.41400316  0.54923595  0.67796148     0.16600
C1297       C  0.54672804  0.66715823  0.77745597    -0.05000
C1298       C  0.52876835  0.69997479  0.76318562    -0.32400
C1299       C  0.51633090  0.72338609  0.79000345     0.36900
C1300       C  0.51410342  0.70769400  0.82804524    -0.05300
C1301       C  0.54140199  0.68377688  0.84530398    -0.32300
C1302       C  0.55655968  0.66125439  0.81948927     0.36800
H1303       H  0.52276785  0.70657426  0.73136970     0.17100
O1304       O  0.49509069  0.75258004  0.77451532    -0.59800
H1305       H  0.54428237  0.67574602  0.87678934     0.17200
O1306       O  0.57852725  0.63244900  0.83520595    -0.59900
H1307       H  0.60185677  0.64529368  0.84553503     0.44200
H1308       H  0.51065913  0.77035445  0.76176699     0.44100
C1309       C  0.50310711  0.51079512  0.47510227    -0.05000
C1310       C  0.53909284  0.50917173  0.49372665    -0.32400
C1311       C  0.54919148  0.50408642  0.53558079     0.36900
C1312       C  0.52341917  0.50537165  0.56099980    -0.05300
C1313       C  0.48888332  0.51581321  0.54249093    -0.32300
C1314       C  0.47819473  0.51670588  0.50050513     0.36800
H1315       H  0.55999312  0.51305349  0.47631280     0.17100
O1316       O  0.58477832  0.50141132  0.55152295    -0.59800
H1317       H  0.46964895  0.52449063  0.55971551     0.17200
O1318       O  0.44311968  0.52295139  0.98481929    -0.59900
H1319       H  0.43783080  0.54815062  0.49492844     0.44200
H1320       H  0.59431685  0.48182283  0.53577476     0.44100
C1321       C  0.99260936  0.52519006  0.82020291    -0.05000
C1322       C  0.98715267  0.53612809  0.77967258    -0.32400
C1323       C  0.01367113  0.52927468  0.75788674     0.36900
C1324       C  0.04497302  0.51358844  0.77858259    -0.05300
C1325       C  0.05360226  0.51455687  0.82057248    -0.32300
C1326       C  0.02678634  0.52039280  0.84208512     0.36800
H1327       H  0.96046042  0.54118574  0.76360676     0.17100
O1328       O  0.00603341  0.52983596  0.71668165    -0.59800
H1329       H  0.07909732  0.50477989  0.83626172     0.17200
O1330       O  0.03198808  0.51111917  0.88226731    -0.59900
H1331       H  0.03099357  0.53565866  0.89612930     0.44200
H1332       H  0.00721882  0.55721353  0.70884931     0.44100
C1333       C  0.02516777  0.34558677  0.58344087    -0.05000
C1334       C  0.98979851  0.68385683  0.56431294    -0.32400
C1335       C  0.97949048  0.68095532  0.52237797     0.36900
C1336       C  0.00555565  0.34544246  0.99725380    -0.05300
C1337       C  0.04137153  0.34853706  0.51631198    -0.32300
C1338       C  0.05135017  0.34654637  0.55831354     0.36800
H1339       H  0.96938998  0.68970089  0.58122848     0.17100
O1340       O  0.94382383  0.68214499  0.00630853    -0.59800
H1341       H  0.06239533  0.35265681  0.49934226     0.17200
O1342       O  0.08702102  0.34553187  0.57422253    -0.59900
H1343       H  0.09819663  0.36916579  0.56466242     0.44200
H1344       H  0.93105553  0.66439406  0.52256196     0.44100
C1345       C  0.99533215  0.67292188  0.45124536     0.30500
C1346       C  0.97370036  0.99501843  0.37124861     0.30500
C1347       C  0.96907229  0.70263999  0.42946885    -0.05700
C1348       C  0.02615419  0.67378586  0.42407495    -0.06500
C1349       C  0.97465026  0.96704296  0.43947237    -0.06300
C1350       C  0.95494608  0.69245976  0.39101211    -0.05700
C1351       C  0.01337420  0.00419734  0.38218150    -0.06500
C1352       C  0.97043249  0.95994040  0.39818435    -0.06300
C1353       C  0.91930197  0.70088619  0.38677139    -0.31700
N1354       N  0.91450700  0.72854364  0.41195747     0.14800
C1355       C  0.94508773  0.72843863  0.44011957    -0.31700
H1356       H  0.94941640  0.74562658  0.46691179     0.16700
C1357       C  0.04021760  0.99083342  0.36375288    -0.30700
N1358       N  0.06935900  0.98462259  0.39175915     0.13500
C1359       C  0.06112988  0.99295923  0.42827546    -0.30700
C1360       C  0.94565747  0.93259052  0.38958889    -0.31000
N1361       N  0.92537223  0.92914736  0.41717407     0.14000
H1362       H  0.94465950  0.91341873  0.36568875     0.16600
C1363       C  0.94335536  0.94844382  0.44980959    -0.31000
H1364       H  0.93416151  0.94955190  0.47813418     0.16600
H1365       H  0.07893314  0.98625412  0.45579688     0.16600
H1366       H  0.89786273  0.69049461  0.36426903     0.16700
H1367       H  0.03789429  0.98393084  0.33229330     0.16600
O1368       O  0.95546060  0.80390143  0.31285309    -0.80400
O1369       O  0.79839515  0.78476758  0.32755623    -0.65100
O1370       O  0.89148836  0.81110760  0.31262117    -1.11700
C1371       C  0.89647877  0.90170185  0.40772902     1.06500
O1372       O  0.78830235  0.84852837  0.32546072    -0.78300
O1373       O  0.84081473  0.89023446  0.30071176    -0.65900
Ni1374     Ni  0.91820219  0.76956159  0.32342849     1.34900
C1375       C  0.87152787  0.90350380  0.29761186     0.85200
O1376       O  0.84754892  0.74877352  0.28503450    -0.78800
O1377       O  0.90265499  0.75301054  0.27002986    -0.89100
C1378       C  0.77733954  0.81336254  0.32231546     0.84800
O1379       O  0.92456632  0.78287521  0.37747510    -0.67300
O1380       O  0.86767143  0.91102191  0.38353816    -0.86600
C1381       C  0.90097277  0.76175942  0.38954549     0.85600
C1382       C  0.87310543  0.73414506  0.26919130     1.07200
H1383       H  0.85013670  0.82324922  0.38585243     0.39000
O1384       O  0.85292203  0.83368218  0.35987087    -1.09200
O1385       O  0.89751598  0.88913117  0.32216475    -0.65900
Ni1386     Ni  0.90067835  0.84212124  0.35846230     1.26300
O1387       O  0.86871519  0.76045773  0.36839654    -0.66100
O1388       O  0.90637421  0.86799594  0.40807143    -0.78400
C1389       C  0.96480351  0.83518653  0.33157737     0.85000
O1390       O  0.94969338  0.84784931  0.35852708    -0.65600
Ni1391     Ni  0.82798163  0.87851099  0.35272845     1.27400
Ni1392     Ni  0.84738985  0.79370649  0.32141939     1.26100
H1393       H  0.89117250  0.82374697  0.28687554     0.39600
C1394       C  0.87443125  0.94450755  0.27638474     0.30500
C1395       C  0.87335328  0.68977277  0.26461882     0.30500
C1396       C  0.90353763  0.96825713  0.30225478    -0.05700
C1397       C  0.88288013  0.95904364  0.23386403    -0.06500
C1398       C  0.83889851  0.96437320  0.27772040    -0.06300
C1399       C  0.90308934  0.67416704  0.29676142    -0.05700
C1400       C  0.88057977  0.66715122  0.22758806    -0.06500
C1401       C  0.83899093  0.67044702  0.27313620    -0.06300
C1402       C  0.93830145  0.68712059  0.30881249    -0.31700
N1403       N  0.95863341  0.99196957  0.32723045     0.14800
C1404       C  0.93935367  0.96067600  0.31267841    -0.31700
H1405       H  0.95116768  0.93371834  0.30860565     0.16700
C1406       C  0.90608311  0.67837818  0.20498424    -0.30700
N1407       N  0.92530374  0.98165879  0.19817545     0.13500
C1408       C  0.91247086  0.95019973  0.21624568    -0.30700
C1409       C  0.80417789  0.68013273  0.25879374    -0.31000
N1410       N  0.78243272  0.98185853  0.25545723     0.14000
H1411       H  0.79568526  0.70825432  0.24813426     0.16600
C1412       C  0.80334060  0.95161632  0.26536588    -0.31000
H1413       H  0.79358142  0.92245692  0.26031976     0.16600
H1414       H  0.92717296  0.92425497  0.22239382     0.16600
H1415       H  0.94733978  0.71667447  0.31048703     0.16700
H1416       H  0.91508928  0.70772419  0.20155301     0.16600
C1417       C  0.05646004  0.99254538  0.20934688     0.30500
C1418       C  0.03489175  0.00553840  0.12946092     0.30500
C1419       C  0.05436549  0.95697014  0.18302332    -0.05700
C1420       C  0.01790997  0.00451670  0.19902591    -0.06500
C1421       C  0.07815850  0.68874074  0.18834952    -0.06300
C1422       C  0.05132546  0.96518100  0.14160686    -0.05700
C1423       C  0.00497127  0.00847955  0.15705231    -0.06500
C1424       C  0.06435198  0.69979924  0.15021774    -0.06300
C1425       C  0.08198017  0.94704413  0.13251564    -0.31700
N1426       N  0.09715431  0.92607429  0.16512650     0.14800
C1427       C  0.07583429  0.92774178  0.19162244    -0.31700
H1428       H  0.07631579  0.90839899  0.21648660     0.16700
C1429       C  0.96895229  0.99560898  0.15303942    -0.30700
N1430       N  0.96032262  0.98686403  0.18959771     0.13500
C1431       C  0.98998360  0.99162758  0.21753692    -0.30700
C1432       C  0.08789948  0.72815156  0.14006209    -0.31000
N1433       N  0.11808663  0.72938923  0.16871746     0.14000
H1434       H  0.08337345  0.74673189  0.11385058     0.16600
C1435       C  0.11373814  0.69942757  0.19298472    -0.31000
H1436       H  0.13482249  0.69032332  0.21624768     0.16600
H1437       H  0.99181035  0.98373130  0.24893550     0.16600
H1438       H  0.09327305  0.95031260  0.10551417     0.16700
H1439       H  0.95051959  0.98986004  0.12561337     0.16600
O1440       O  0.07638667  0.79204942  0.27469553    -0.80400
O1441       O  0.23020306  0.79472213  0.24987162    -0.65100
O1442       O  0.13850446  0.80818283  0.27112855    -1.11700
C1443       C  0.12649978  0.90148730  0.17620410     1.06500
O1444       O  0.23791964  0.85901358  0.25688182    -0.78300
O1445       O  0.18332938  0.88810461  0.28312762    -0.65900
Ni1446     Ni  0.11386742  0.76367157  0.26127734     1.34900
C1447       C  0.15357672  0.90112286  0.28583864     0.85200
O1448       O  0.18510612  0.74933797  0.29561285    -0.78800
O1449       O  0.13153844  0.74828669  0.31435234    -0.89100
C1450       C  0.24991982  0.82570493  0.25332703     0.84800
O1451       O  0.10480902  0.77792591  0.20696491    -0.67300
O1452       O  0.15500224  0.91340747  0.20028686    -0.86600
C1453       C  0.12937402  0.76209981  0.19305430     0.85600
C1454       C  0.16057493  0.73176772  0.31290899     1.07200
H1455       H  0.17619847  0.82976401  0.19542382     0.39000
O1456       O  0.17366039  0.83791454  0.22191154    -1.09200
O1457       O  0.12731185  0.88656889  0.26099235    -0.65900
Ni1458     Ni  0.12585028  0.83984857  0.22567589     1.26300
O1459       O  0.16178743  0.76398051  0.21318046    -0.66100
O1460       O  0.11719098  0.86688963  0.17644538    -0.78400
C1461       C  0.06605082  0.82390328  0.25847638     0.85000
O1462       O  0.07704573  0.83833564  0.22833093    -0.65600
Ni1463     Ni  0.19660195  0.88496698  0.23061400     1.27400
Ni1464     Ni  0.18239773  0.79680945  0.25989806     1.26100
H1465       H  0.13940986  0.81969665  0.29709400     0.39600
C1466       C  0.15334733  0.94219318  0.30549856     0.30500
C1467       C  0.15896146  0.68730773  0.31618549     0.30500
C1468       C  0.12599408  0.96596599  0.27866139    -0.05700
C1469       C  0.14510739  0.95627960  0.34755556    -0.06500
C1470       C  0.19017331  0.96249537  0.30383933    -0.06300
C1471       C  0.12836021  0.67188230  0.28379142    -0.05700
C1472       C  0.15015499  0.66411932  0.35335992    -0.06500
C1473       C  0.19219612  0.66831347  0.30774030    -0.06300
C1474       C  0.09361000  0.68421773  0.27127101    -0.31700
N1475       N  0.07199793  0.98894830  0.25318133     0.14800
C1476       C  0.08999647  0.95773564  0.26754215    -0.31700
H1477       H  0.07687268  0.93088408  0.27344315     0.16700
C1478       C  0.12560882  0.67530877  0.37616878    -0.30700
N1479       N  0.10405558  0.97886615  0.38317058     0.13500
C1480       C  0.11458384  0.94761356  0.36500602    -0.30700
C1481       C  0.22764042  0.67968281  0.31075172    -0.31000
N1482       N  0.24769371  0.98199114  0.30885381     0.14000
H1483       H  0.23849625  0.70854853  0.31522852     0.16600
C1484       C  0.22550867  0.95087922  0.30610099    -0.31000
H1485       H  0.23514909  0.92224630  0.30639135     0.16600
H1486       H  0.09791989  0.92202442  0.35875969     0.16600
H1487       H  0.08526269  0.71329602  0.27034229     0.16700
H1488       H  0.11896025  0.70471158  0.37972024     0.16600
C1489       C  0.55193421  0.81512567  0.18673698     0.30500
C1490       C  0.53291470  0.83009346  0.10685292     0.30500
C1491       C  0.54517298  0.77912475  0.16012650    -0.05700
C1492       C  0.51576284  0.83369039  0.17586050    -0.06500
C1493       C  0.57769307  0.84029583  0.16622320    -0.06300
C1494       C  0.54426970  0.78763270  0.11875808    -0.05700
C1495       C  0.50384241  0.83797824  0.13382797    -0.06500
C1496       C  0.56545463  0.85313990  0.12828501    -0.06300
C1497       C  0.57436418  0.76711513  0.11145968    -0.31700
N1498       N  0.58594257  0.74376861  0.14358903     0.14800
C1499       C  0.56335003  0.74703681  0.16864301    -0.31700
H1500       H  0.56333057  0.72877863  0.19433089     0.16700
C1501       C  0.46677895  0.83033398  0.12883489    -0.30700
N1502       N  0.45662051  0.82603543  0.16507526     0.13500
C1503       C  0.48607044  0.82714671  0.19372922    -0.30700
C1504       C  0.58849594  0.88351073  0.12208994    -0.31000
N1505       N  0.61659529  0.88485911  0.15349558     0.14000
H1506       H  0.58385485  0.90458761  0.09808188     0.16600
C1507       C  0.61224757  0.85350742  0.17577791    -0.31000
H1508       H  0.63144915  0.84586214  0.20158386     0.16600
H1509       H  0.48606968  0.82105380  0.22514815     0.16600
H1510       H  0.58847512  0.77143356  0.08670675     0.16700
H1511       H  0.44852474  0.82410813  0.10137636     0.16600
O1512       O  0.56671173  0.94207022  0.25974633    -0.80400
O1513       O  0.72459435  0.95136419  0.24139642    -0.65100
O1514       O  0.63048749  0.96288123  0.25776404    -1.11700
C1515       C  0.61536295  0.71943674  0.15733954     1.06500
O1516       O  0.73164186  0.68233346  0.23284885    -0.78300
O1517       O  0.67912837  0.71679783  0.25947112    -0.65900
Ni1518     Ni  0.60663328  0.91742950  0.24709220     1.34900
C1519       C  0.64886794  0.72582271  0.26604375     0.85200
O1520       O  0.67707550  0.90614938  0.28509166    -0.78800
O1521       O  0.62209123  0.90326417  0.30046109    -0.89100
C1522       C  0.74428804  0.98241504  0.24205948     0.84800
O1523       O  0.59913316  0.93109240  0.19243394    -0.67300
O1524       O  0.64523264  0.73271223  0.17748976    -0.86600
C1525       C  0.62527853  0.91656140  0.17991834     0.85600
C1526       C  0.65150312  0.88756042  0.30009183     1.07200
H1527       H  0.66641576  0.64820665  0.18114568     0.39000
O1528       O  0.66508959  0.65848293  0.20713688    -1.09200
O1529       O  0.62136028  0.70780712  0.24629225    -0.65900
Ni1530     Ni  0.61719171  0.66031756  0.21241878     1.26300
O1531       O  0.65682393  0.91851182  0.20214883    -0.66100
O1532       O  0.60586664  0.68536999  0.16225202    -0.78400
C1533       C  0.55913756  0.97616161  0.24908560     0.85000
O1534       O  0.56860644  0.65849901  0.21831861    -0.65600
Ni1535     Ni  0.68828452  0.70589774  0.20695545     1.27400
Ni1536     Ni  0.67510455  0.95273700  0.24805269     1.26100
H1537       H  0.63049917  0.97444659  0.28351805     0.39600
C1538       C  0.64717581  0.76563495  0.28714956     0.30500
C1539       C  0.64961504  0.84324347  0.30107918     0.30500
C1540       C  0.62014509  0.78948007  0.26005061    -0.05700
C1541       C  0.63802648  0.77713981  0.32932756    -0.06500
C1542       C  0.68338742  0.78744085  0.28748865    -0.06300
C1543       C  0.62023037  0.82815418  0.26722405    -0.05700
C1544       C  0.64134733  0.81797365  0.33696389    -0.06500
C1545       C  0.68351147  0.82658902  0.29272668    -0.06300
C1546       C  0.58564886  0.83953234  0.25132734    -0.31700
N1547       N  0.56653941  0.81044335  0.23059131     0.14800
C1548       C  0.58569381  0.77976165  0.24399012    -0.31700
H1549       H  0.57359635  0.75282965  0.25013478     0.16700
C1550       C  0.61663259  0.82640537  0.36048641    -0.30700
N1551       N  0.59685667  0.79487128  0.36659209     0.13500
C1552       C  0.60851158  0.76548613  0.34673612    -0.30700
C1553       C  0.71774670  0.83816301  0.30749142    -0.31000
N1554       N  0.73945688  0.80827943  0.31036092     0.14000
H1555       H  0.72602276  0.86637247  0.31879109     0.16600
C1556       C  0.71884445  0.77663579  0.29999614    -0.31000
H1557       H  0.72862248  0.74793387  0.30388204     0.16600
H1558       H  0.59309816  0.73936115  0.33930128     0.16600
H1559       H  0.57596191  0.86803555  0.25086434     0.16700
H1560       H  0.60837347  0.85503464  0.36505684     0.16600
C1561       C  0.49220571  0.84243954  0.42897218     0.30500
C1562       C  0.47401475  0.84235319  0.34821697     0.30500
C1563       C  0.48357607  0.88314582  0.40729384    -0.05700
C1564       C  0.51906063  0.82262571  0.40506946    -0.04100
C1565       C  0.45753971  0.81962970  0.41314769    -0.06300
C1566       C  0.48363497  0.88263500  0.36545895    -0.05700
C1567       C  0.50775815  0.82170827  0.36380102    -0.06500
C1568       C  0.44618559  0.82556950  0.37302847    -0.06300
C1569       C  0.46663530  0.91372789  0.34873423    -0.31700
N1570       N  0.44312496  0.92453001  0.37063372     0.14800
C1571       C  0.45338421  0.90706611  0.40743266    -0.31700
H1572       H  0.43754717  0.90757008  0.43087251     0.16700
C1573       C  0.53423072  0.80796769  0.34566354    -0.30700
N1574       N  0.56172434  0.79785052  0.37440897     0.13500
C1575       C  0.55310487  0.80663146  0.41071866    -0.30700
C1576       C  0.41083038  0.81504948  0.36556605    -0.31000
N1577       N  0.40396884  0.79019089  0.39394949     0.14000
H1578       H  0.39152761  0.82104944  0.33938608     0.16600
C1579       C  0.43233831  0.79398220  0.42491507    -0.31000
H1580       H  0.43556139  0.77746047  0.45261592     0.16600
H1581       H  0.57137542  0.80283296  0.43861972     0.16600
H1582       H  0.46722080  0.92349451  0.31892072     0.16700
H1583       H  0.53532439  0.80975507  0.31396746     0.16600
O1584       O  0.47558672  0.99011436  0.30726597    -0.80400
O1585       O  0.30715700  0.95751927  0.31642308    -0.65100
O1586       O  0.40002754  0.99096495  0.29057173    -1.11700
C1587       C  0.38803836  0.75502881  0.37699603     1.06500
O1588       O  0.29558719  0.68147274  0.28910195    -0.78300
O1589       O  0.34656127  0.72811355  0.26968765    -0.65900
Ni1590     Ni  0.43809784  0.95995199  0.27716241     1.34900
C1591       C  0.37592270  0.74626427  0.27133150     0.85200
O1592       O  0.35521453  0.92160595  0.27451114    -0.78800
O1593       O  0.40211544  0.92896165  0.24279769    -0.89100
C1594       C  0.28491231  0.98437395  0.30509982     0.84800
O1595       O  0.41224180  0.96406826  0.31849168    -0.67300
O1596       O  0.35843459  0.75645280  0.35146509    -0.86600
C1597       C  0.41177472  0.94461115  0.35021467     0.85600
C1598       C  0.37594528  0.90890656  0.25155722     1.07200
H1599       H  0.35604775  0.67279348  0.36442148     0.39000
O1600       O  0.35865551  0.67961371  0.33722278    -1.09200
O1601       O  0.40119058  0.73613991  0.29848479    -0.65900
Ni1602     Ni  0.40663869  0.69278323  0.33554016     1.26300
O1603       O  0.38002796  0.94096650  0.35571785    -0.66100
O1604       O  0.40797611  0.72632016  0.37950831    -0.78400
C1605       C  0.47950755  0.02182536  0.32545941     0.85000
O1606       O  0.45486617  0.70587653  0.33659918    -0.65600
Ni1607     Ni  0.32730485  0.71833385  0.31875618     1.27400
Ni1608     Ni  0.35525082  0.96857026  0.30547862     1.26100
H1609       H  0.39233526  0.00578603  0.26601646     0.39600
C1610       C  0.37706077  0.78730464  0.25344485     0.30500
C1611       C  0.37514171  0.86540785  0.24359637     0.30500
C1612       C  0.40843894  0.81088711  0.27632571    -0.05700
C1613       C  0.38023980  0.80186653  0.20978262    -0.06500
C1614       C  0.34352680  0.80661362  0.26146924    -0.06300
C1615       C  0.40674900  0.84978718  0.27170605    -0.05700
C1616       C  0.37857183  0.84342443  0.20448929    -0.06500
C1617       C  0.34317113  0.84574937  0.25697660    -0.06300
C1618       C  0.44068093  0.86386551  0.28344721    -0.31700
N1619       N  0.46105892  0.83730271  0.30464939     0.14800
C1620       C  0.44323294  0.80374847  0.29381842    -0.31700
H1621       H  0.45160477  0.77686950  0.30753415     0.16700
C1622       C  0.40354911  0.85365870  0.18059888    -0.30700
N1623       N  0.42114188  0.82277749  0.17224500     0.13500
C1624       C  0.40746531  0.79167420  0.18955646    -0.30700
C1625       C  0.30839069  0.85610903  0.25229683    -0.31000
N1626       N  0.28750241  0.82466786  0.25535315     0.14000
H1627       H  0.29855258  0.88439642  0.24445527     0.16600
C1628       C  0.30811681  0.79404725  0.25939973    -0.31000
H1629       H  0.29715809  0.76518922  0.25839675     0.16600
H1630       H  0.42140618  0.76513336  0.19490849     0.16600
H1631       H  0.45152606  0.88894221  0.27050516     0.16700
H1632       H  0.41399112  0.88256448  0.17795979     0.16600
C1633       C  0.54672393  0.00048731  0.27744910    -0.05000
C1634       C  0.52876397  0.03330287  0.26317671    -0.32400
C1635       C  0.51631878  0.05671177  0.28999027     0.36900
C1636       C  0.51409959  0.04102633  0.32803758    -0.05300
C1637       C  0.54140042  0.01711287  0.34529714    -0.32300
C1638       C  0.55655099  0.99458225  0.31948326     0.36800
H1639       H  0.52276576  0.03990121  0.23136025     0.17100
O1640       O  0.49506348  0.08589043  0.27449280    -0.59800
H1641       H  0.54428150  0.00908476  0.37678338     0.17200
O1642       O  0.57850368  0.96576539  0.33520199    -0.59900
H1643       H  0.60183783  0.97859809  0.34553581     0.44200
H1644       H  0.51062927  0.10368154  0.26176047     0.44100
C1645       C  0.50311370  0.84414570  0.97510608    -0.05000
C1646       C  0.53909789  0.84250887  0.99373122    -0.32400
C1647       C  0.54919464  0.83741411  0.03558403     0.36900
C1648       C  0.52342320  0.83870421  0.06100303    -0.05300
C1649       C  0.48888980  0.84915722  0.04249588    -0.32300
C1650       C  0.47820194  0.85005883  0.00050961     0.36800
H1651       H  0.55999945  0.84638888  0.97631934     0.17100
O1652       O  0.58478022  0.83472582  0.05152590    -0.59800
H1653       H  0.46965741  0.85783668  0.05972272     0.17200
O1654       O  0.44310389  0.85627280  0.48483451    -0.59900
H1655       H  0.43784093  0.88150786  0.99494492     0.44200
H1656       H  0.59431543  0.81514318  0.03576758     0.44100
C1657       C  0.99259777  0.85853093  0.32019434    -0.05000
C1658       C  0.98713282  0.86945164  0.27965855    -0.32400
C1659       C  0.01365174  0.86260060  0.25787320     0.36900
C1660       C  0.04496256  0.84693738  0.27857383    -0.05300
C1661       C  0.05359638  0.84792742  0.32056224    -0.32300
C1662       C  0.02677956  0.85375992  0.34207514     0.36800
H1663       H  0.96043672  0.87448926  0.26359250     0.17100
O1664       O  0.00600697  0.86313488  0.21666862    -0.59800
H1665       H  0.07909733  0.83816761  0.33625312     0.17200
O1666       O  0.03198954  0.84450685  0.38226204    -0.59900
H1667       H  0.03105452  0.86906320  0.39611317     0.44200
H1668       H  0.00726800  0.89050136  0.20881471     0.44100
C1669       C  0.02516606  0.67891779  0.08344275    -0.05000
C1670       C  0.98980600  0.01719047  0.06431585    -0.32400
C1671       C  0.97949763  0.01428537  0.02238105     0.36900
C1672       C  0.00556119  0.67877507  0.49725298    -0.05300
C1673       C  0.04137244  0.68186157  0.01631409    -0.32300
C1674       C  0.05134959  0.67987342  0.05831666     0.36800
H1675       H  0.96939763  0.02303730  0.08123063     0.17100
O1676       O  0.94381095  0.01546986  0.50630347    -0.59800
H1677       H  0.06239728  0.68597753  0.99934523     0.17200
O1678       O  0.08701994  0.67885801  0.07422814    -0.59900
H1679       H  0.09819604  0.70249302  0.06467120     0.44200
H1680       H  0.93106170  0.99772882  0.02256664     0.44100
C1681       C  0.99533466  0.67291852  0.95124009     0.30500
C1682       C  0.97370042  0.99502851  0.87125709     0.30500
C1683       C  0.96907714  0.70264139  0.92946463    -0.05700
C1684       C  0.02615575  0.67377923  0.92406774    -0.06500
C1685       C  0.97465322  0.96704643  0.93947913    -0.06300
C1686       C  0.95495035  0.69246462  0.89100654    -0.05700
C1687       C  0.01337628  0.00420112  0.88218761    -0.06500
C1688       C  0.97043187  0.95994906  0.89819010    -0.06300
C1689       C  0.91930807  0.70089792  0.88676375    -0.31700
N1690       N  0.91451664  0.72855752  0.91194833     0.14800
C1691       C  0.94509639  0.72844714  0.94011280    -0.31700
H1692       H  0.94942491  0.74563271  0.96690669     0.16700
C1693       C  0.04021623  0.99083512  0.86375439    -0.30700
N1694       N  0.06935888  0.98461737  0.89175699     0.13500
C1695       C  0.06113370  0.99295147  0.92827604    -0.30700
C1696       C  0.94565798  0.93259929  0.88959305    -0.31000
N1697       N  0.92537441  0.92915236  0.91717926     0.14000
H1698       H  0.94465848  0.91343119  0.86568982     0.16600
C1699       C  0.94335889  0.94844578  0.94981668    -0.31000
H1700       H  0.93416546  0.94955279  0.97814176     0.16600
H1701       H  0.07893839  0.98624172  0.95579492     0.16600
H1702       H  0.89786763  0.69050850  0.86426181     0.16700
H1703       H  0.03788969  0.98393717  0.83229331     0.16600
O1704       O  0.95545827  0.80392907  0.81283263    -0.80400
O1705       O  0.79840115  0.78477764  0.82755086    -0.65100
O1706       O  0.89149018  0.81112372  0.81261103    -1.11700
C1707       C  0.89648000  0.90170869  0.90772931     1.06500
O1708       O  0.78830605  0.84853803  0.82545672    -0.78300
O1709       O  0.84081452  0.89024061  0.80070599    -0.65900
Ni1710     Ni  0.91820782  0.76957891  0.82341321     1.34900
C1711       C  0.87152585  0.90351546  0.79760991     0.85200
O1712       O  0.84755099  0.74878725  0.78502392    -0.78800
O1713       O  0.90265575  0.75302337  0.77001558    -0.89100
C1714       C  0.77734482  0.81337169  0.82231170     0.84800
O1715       O  0.92457592  0.78288873  0.87746156    -0.67300
O1716       O  0.86767517  0.91103109  0.88353482    -0.86600
C1717       C  0.90098286  0.76177323  0.88953410     0.85600
C1718       C  0.87310613  0.73415744  0.76917965     1.07200
H1719       H  0.85013947  0.82325857  0.88584591     0.39000
O1720       O  0.85292489  0.83369255  0.85986505    -1.09200
O1721       O  0.89751450  0.88914661  0.82216453    -0.65900
Ni1722     Ni  0.90068027  0.84213364  0.85845634     1.26300
O1723       O  0.86872434  0.76047120  0.86838659    -0.66100
O1724       O  0.90637450  0.86800261  0.90806946    -0.78400
C1725       C  0.96480074  0.83521271  0.83156082     0.85000
O1726       O  0.94969518  0.84786598  0.85851918    -0.65600
Ni1727     Ni  0.82798439  0.87852081  0.85272397     1.27400
Ni1728     Ni  0.84739369  0.79371929  0.82141111     1.26100
H1729       H  0.89117181  0.82376554  0.78686635     0.39600
C1730       C  0.87442498  0.94452033  0.77638939     0.30500
C1731       C  0.87335101  0.68978338  0.76460824     0.30500
C1732       C  0.90353098  0.96826997  0.80226107    -0.05700
C1733       C  0.88287301  0.95905316  0.73386942    -0.06500
C1734       C  0.83889151  0.96438522  0.77772432    -0.06300
C1735       C  0.90308478  0.67417660  0.79675365    -0.05700
C1736       C  0.88057791  0.66715721  0.72758003    -0.06500
C1737       C  0.83898525  0.67046022  0.77312236    -0.06300
C1738       C  0.93829814  0.68712763  0.80880515    -0.31700
N1739       N  0.95862700  0.99198395  0.82723933     0.14800
C1740       C  0.93934785  0.96069079  0.81268429    -0.31700
H1741       H  0.95116303  0.93373467  0.80860803     0.16700
C1742       C  0.90608365  0.67837672  0.70497676    -0.30700
N1743       N  0.92529649  0.98165275  0.69817667     0.13500
C1744       C  0.91245682  0.95019791  0.71624639    -0.30700
C1745       C  0.80417273  0.68014496  0.75877094    -0.31000
N1746       N  0.78242716  0.98187018  0.75545227     0.14000
H1747       H  0.79568132  0.70826626  0.74810868     0.16600
C1748       C  0.80333353  0.95162824  0.76537093    -0.31000
H1749       H  0.79357266  0.92246823  0.76033520     0.16600
H1750       H  0.92714970  0.92424676  0.72238890     0.16600
H1751       H  0.94733762  0.71668123  0.81047964     0.16700
H1752       H  0.91509576  0.70772056  0.70154505     0.16600
C1753       C  0.05645261  0.99254347  0.70933597     0.30500
C1754       C  0.03488132  0.00553620  0.62944990     0.30500
C1755       C  0.05436912  0.95697181  0.68301049    -0.05700
C1756       C  0.01789960  0.00450081  0.69901523    -0.06500
C1757       C  0.07814829  0.68874531  0.68834785    -0.06300
C1758       C  0.05132601  0.96518306  0.64159486    -0.05700
C1759       C  0.00495930  0.00846468  0.65704268    -0.06500
C1760       C  0.06433854  0.69980676  0.65021813    -0.06300
C1761       C  0.08197952  0.94704566  0.63250039    -0.31700
N1762       N  0.09715447  0.92607299  0.66510988     0.14800
C1763       C  0.07583816  0.92774407  0.69160932    -0.31700
H1764       H  0.07631843  0.90839981  0.71647219     0.16700
C1765       C  0.96894078  0.99559165  0.65303252    -0.30700
N1766       N  0.96031423  0.98684376  0.68959220     0.13500
C1767       C  0.98997715  0.99160579  0.71752851    -0.30700
C1768       C  0.08788659  0.72815444  0.64005690    -0.31000
N1769       N  0.11807778  0.72938614  0.66870508     0.14000
H1770       H  0.08335841  0.74673576  0.61384626     0.16600
C1771       C  0.11372962  0.69942398  0.69297228    -0.31000
H1772       H  0.13481651  0.69031401  0.71622952     0.16600
H1773       H  0.99180684  0.98370929  0.74892743     0.16600
H1774       H  0.09326932  0.95031403  0.60549663     0.16700
H1775       H  0.95050480  0.98984841  0.62560746     0.16600
O1776       O  0.07638938  0.79204417  0.77469153    -0.80400
O1777       O  0.23019825  0.79471194  0.74984545    -0.65100
O1778       O  0.13850543  0.80817638  0.77111626    -1.11700
C1779       C  0.12649713  0.90148142  0.67618763     1.06500
O1780       O  0.23791146  0.85900081  0.75687449    -0.78300
O1781       O  0.18332422  0.88810077  0.78311299    -0.65900
Ni1782     Ni  0.11386881  0.76366511  0.76127075     1.34900
C1783       C  0.15357123  0.90111860  0.78582374     0.85200
O1784       O  0.18510693  0.74932603  0.79558994    -0.78800
O1785       O  0.13154589  0.74828033  0.81434454    -0.89100
C1786       C  0.24991343  0.82569539  0.75330792     0.84800
O1787       O  0.10480511  0.77791866  0.70695898    -0.67300
O1788       O  0.15500159  0.91339966  0.70026876    -0.86600
C1789       C  0.12936776  0.76209451  0.69304243     0.85600
C1790       C  0.16057937  0.73175827  0.81289383     1.07200
H1791       H  0.17619215  0.82975897  0.69540584     0.39000
O1792       O  0.17365575  0.83790758  0.72189469    -1.09200
O1793       O  0.12730716  0.88656359  0.76097753    -0.65900
Ni1794     Ni  0.12584643  0.83984204  0.72566299     1.26300
O1795       O  0.16178275  0.76397485  0.71316223    -0.66100
O1796       O  0.11718372  0.86688451  0.67643237    -0.78400
C1797       C  0.06604686  0.82389397  0.75846675     0.85000
O1798       O  0.07704225  0.83832802  0.72832207    -0.65600
Ni1799     Ni  0.19659862  0.88495794  0.73060020     1.27400
Ni1800     Ni  0.18239623  0.79680058  0.75987890     1.26100
H1801       H  0.13941457  0.81969072  0.79708201     0.39600
C1802       C  0.15334014  0.94218909  0.80548458     0.30500
C1803       C  0.15896351  0.68729799  0.81617203     0.30500
C1804       C  0.12598433  0.96596087  0.77864913    -0.05700
C1805       C  0.14510365  0.95627762  0.84754313    -0.06500
C1806       C  0.19016468  0.96249254  0.80382124    -0.06300
C1807       C  0.12836143  0.67187347  0.78377875    -0.05700
C1808       C  0.15015628  0.66411161  0.85334706    -0.06500
C1809       C  0.19219699  0.66830186  0.80772783    -0.06300
C1810       C  0.09361131  0.68421071  0.77126455    -0.31700
N1811       N  0.07198888  0.98894535  0.75317061     0.14800
C1812       C  0.08998607  0.95773187  0.76753260    -0.31700
H1813       H  0.07686174  0.93087940  0.77342940     0.16700
C1814       C  0.12561028  0.67530344  0.87615511    -0.30700
N1815       N  0.10405437  0.97886359  0.88316283     0.13500
C1816       C  0.11458369  0.94761026  0.86499995    -0.30700
C1817       C  0.22764131  0.67967081  0.81074538    -0.31000
N1818       N  0.24768466  0.98199071  0.80884102     0.14000
H1819       H  0.23849635  0.70853631  0.81522755     0.16600
C1820       C  0.22550082  0.95087762  0.80608774    -0.31000
H1821       H  0.23514234  0.92224481  0.80638223     0.16600
H1822       H  0.09792253  0.92201839  0.85875987     0.16600
H1823       H  0.08526570  0.71328947  0.77033992     0.16700
H1824       H  0.11896293  0.70470680  0.87970566     0.16600
C1825       C  0.55194035  0.81513839  0.68674492     0.30500
C1826       C  0.53291741  0.83011396  0.60686377     0.30500
C1827       C  0.54517131  0.77914020  0.66013170    -0.05700
C1828       C  0.51577087  0.83370731  0.67587446    -0.06500
C1829       C  0.57770040  0.84030686  0.66623021    -0.06300
C1830       C  0.54426622  0.78765131  0.61876392    -0.05700
C1831       C  0.50384943  0.83800228  0.63384188    -0.06500
C1832       C  0.56545900  0.85315499  0.62829459    -0.06300
C1833       C  0.57435596  0.76713053  0.61145947    -0.31700
N1834       N  0.58593195  0.74377894  0.64358492     0.14800
C1835       C  0.56334282  0.74704830  0.66864262    -0.31700
H1836       H  0.56332569  0.72879052  0.69433112     0.16700
C1837       C  0.46678723  0.83035742  0.62884798    -0.30700
N1838       N  0.45662956  0.82604719  0.66508635     0.13500
C1839       C  0.48607855  0.82715402  0.69374150    -0.30700
C1840       C  0.58849336  0.88353147  0.62210164    -0.31000
N1841       N  0.61659428  0.88487871  0.65350425     0.14000
H1842       H  0.58384403  0.90461475  0.59810058     0.16600
C1843       C  0.61225307  0.85352332  0.67578391    -0.31000
H1844       H  0.63145620  0.84588022  0.70158928     0.16600
H1845       H  0.48607765  0.82105034  0.72515846     0.16600
H1846       H  0.58846692  0.77145193  0.58670685     0.16700
H1847       H  0.44853237  0.82413405  0.60138979     0.16600
O1848       O  0.56671522  0.94207193  0.75977138    -0.80400
O1849       O  0.72459001  0.95137565  0.74139668    -0.65100
O1850       O  0.63048780  0.96288569  0.75778060    -1.11700
C1851       C  0.61535276  0.71944775  0.65733267     1.06500
O1852       O  0.73163528  0.68234294  0.73282442    -0.78300
O1853       O  0.67912949  0.71680820  0.75945726    -0.65900
Ni1854     Ni  0.60663498  0.91743351  0.74710987     1.34900
C1855       C  0.64887039  0.72582921  0.76603745     0.85200
O1856       O  0.67707973  0.90615487  0.78509526    -0.78800
O1857       O  0.62209974  0.90326739  0.80047647    -0.89100
C1858       C  0.74428235  0.98242720  0.74206119     0.84800
O1859       O  0.59912837  0.93109960  0.69245258    -0.67300
O1860       O  0.64522273  0.73272323  0.67748135    -0.86600
C1861       C  0.62527452  0.91657703  0.67993052     0.85600
C1862       C  0.65151056  0.88756448  0.80009924     1.07200
H1863       H  0.66640503  0.64821594  0.68113143     0.39000
O1864       O  0.66508130  0.65849170  0.70712362    -1.09200
O1865       O  0.62136039  0.70781185  0.74629038    -0.65900
Ni1866     Ni  0.61718499  0.66032513  0.71240879     1.26300
O1867       O  0.65682096  0.91852760  0.70215703    -0.66100
O1868       O  0.60585751  0.68538082  0.66224428    -0.78400
C1869       C  0.55913565  0.97616113  0.74910666     0.85000
O1870       O  0.56859979  0.65850407  0.71830751    -0.65600
Ni1871     Ni  0.68827639  0.70590720  0.70693851     1.27400
Ni1872     Ni  0.67510374  0.95274590  0.74806242     1.26100
H1873       H  0.63050069  0.97445097  0.78353502     0.39600
C1874       C  0.64718134  0.76564015  0.78714885     0.30500
C1875       C  0.64962256  0.84324817  0.80108234     0.30500
C1876       C  0.62015409  0.78948746  0.76004906    -0.05700
C1877       C  0.63802819  0.77714486  0.82932596    -0.06500
C1878       C  0.68339394  0.78744571  0.78749174    -0.06300
C1879       C  0.62023905  0.82816123  0.76722582    -0.05700
C1880       C  0.64135274  0.81797854  0.83696485    -0.06500
C1881       C  0.68351800  0.82659385  0.79273016    -0.06300
C1882       C  0.58565618  0.83953833  0.75133583    -0.31700
N1883       N  0.56654691  0.81045098  0.73059761     0.14800
C1884       C  0.58570312  0.77976907  0.74398952    -0.31700
H1885       H  0.57360645  0.75283739  0.75013737     0.16700
C1886       C  0.61663560  0.82641456  0.86048203    -0.30700
N1887       N  0.59685245  0.79488440  0.86657944     0.13500
C1888       C  0.60850652  0.76549706  0.84672595    -0.30700
C1889       C  0.71775241  0.83816957  0.80749203    -0.31000
N1890       N  0.73946272  0.80828659  0.81036017     0.14000
H1891       H  0.72602807  0.86637957  0.81879063     0.16600
C1892       C  0.71885116  0.77664175  0.79999686    -0.31000
H1893       H  0.72863005  0.74794004  0.80387987     0.16600
H1894       H  0.59308928  0.73937527  0.83928658     0.16600
H1895       H  0.57596628  0.86803960  0.75088176     0.16700
H1896       H  0.60838024  0.85504541  0.86505235     0.16600
C1897       C  0.49220272  0.84245508  0.92895866     0.30500
C1898       C  0.47400842  0.84236906  0.84820230     0.30500
C1899       C  0.48357043  0.88316124  0.90728005    -0.05700
C1900       C  0.51905617  0.82264236  0.90505336    -0.04100
C1901       C  0.45753829  0.81964443  0.91313550    -0.06300
C1902       C  0.48362734  0.88265078  0.86544413    -0.05700
C1903       C  0.50775392  0.82172796  0.86378452    -0.06500
C1904       C  0.44618169  0.82558287  0.87301625    -0.06300
C1905       C  0.46662590  0.91374240  0.84871956    -0.31700
N1906       N  0.44311571  0.92454220  0.87061989     0.14800
C1907       C  0.45337726  0.90707923  0.90741952    -0.31700
H1908       H  0.43754055  0.90758211  0.93085979     0.16700
C1909       C  0.53422900  0.80799461  0.84564619    -0.30700
N1910       N  0.56171953  0.79786982  0.87439169     0.13500
C1911       C  0.55309852  0.80664467  0.91070182    -0.30700
C1912       C  0.41082946  0.81505127  0.86555565    -0.31000
N1913       N  0.40397566  0.79019054  0.89394064     0.14000
H1914       H  0.39152373  0.82104577  0.83937687     0.16600
C1915       C  0.43234555  0.79398774  0.92490435    -0.31000
H1916       H  0.43557726  0.77746156  0.95260253     0.16600
H1917       H  0.57136693  0.80283817  0.93860287     0.16600
H1918       H  0.46720949  0.92350983  0.81890553     0.16700
H1919       H  0.53532653  0.80979258  0.81395164     0.16600
O1920       O  0.47557084  0.99013472  0.80724124    -0.80400
O1921       O  0.30714675  0.95752171  0.81641278    -0.65100
O1922       O  0.40002526  0.99095310  0.79060254    -1.11700
C1923       C  0.38804693  0.75502720  0.87699005     1.06500
O1924       O  0.29558759  0.68147396  0.78910238    -0.78300
O1925       O  0.34656344  0.72811585  0.76968367    -0.65900
Ni1926     Ni  0.43808669  0.95996356  0.77714439     1.34900
C1927       C  0.37592410  0.74626840  0.77132410     0.85200
O1928       O  0.35520423  0.92161110  0.77450248    -0.78800
O1929       O  0.40209921  0.92897331  0.74278109    -0.89100
C1930       C  0.28490334  0.98437596  0.80508976     0.84800
O1931       O  0.41222553  0.96407996  0.81847394    -0.67300
O1932       O  0.35844249  0.75645000  0.85146069    -0.86600
C1933       C  0.41176338  0.94461695  0.85020401     0.85600
C1934       C  0.37593226  0.90891449  0.75154364     1.07200
H1935       H  0.35605764  0.67279253  0.86441521     0.39000
O1936       O  0.35866369  0.67961441  0.83721611    -1.09200
O1937       O  0.40119478  0.73614460  0.79847557    -0.65900
Ni1938     Ni  0.40664673  0.69278558  0.83553041     1.26300
O1939       O  0.38001671  0.94097127  0.85571034    -0.66100
O1940       O  0.40798599  0.72631972  0.87950137    -0.78400
C1941       C  0.47949537  0.02183579  0.82545543     0.85000
O1942       O  0.45487587  0.70587776  0.83659164    -0.65600
Ni1943     Ni  0.32731061  0.71833299  0.81875445     1.27400
Ni1944     Ni  0.35524093  0.96857273  0.80547760     1.26100
H1945       H  0.39235129  0.00574455  0.76610937     0.39600
C1946       C  0.37705856  0.78730966  0.75343377     0.30500
C1947       C  0.37513203  0.86541441  0.74358345     0.30500
C1948       C  0.40843263  0.81089662  0.77631607    -0.05700
C1949       C  0.38023982  0.80187225  0.70977263    -0.06500
C1950       C  0.34352144  0.80661508  0.76145227    -0.06300
C1951       C  0.40673852  0.84979709  0.77169648    -0.05700
C1952       C  0.37856941  0.84343092  0.70447862    -0.06500
C1953       C  0.34316215  0.84575121  0.75696032    -0.06300
C1954       C  0.44066974  0.86387857  0.78343432    -0.31700
N1955       N  0.46105155  0.83731779  0.80463470     0.14800
C1956       C  0.44322874  0.80376174  0.79380341    -0.31700
H1957       H  0.45160473  0.77688221  0.80751443     0.16700
C1958       C  0.40355314  0.85366720  0.68059750    -0.30700
N1959       N  0.42115014  0.82278720  0.67225057     0.13500
C1960       C  0.40747012  0.79168184  0.68955370    -0.30700
C1961       C  0.30838096  0.85610679  0.75228109    -0.31000
N1962       N  0.28749563  0.82466243  0.75533322     0.14000
H1963       H  0.29854025  0.88439376  0.74444295     0.16600
C1964       C  0.30811264  0.79404417  0.75937863    -0.31000
H1965       H  0.29715662  0.76518497  0.75837261     0.16600
H1966       H  0.42141114  0.76514120  0.69490710     0.16600
H1967       H  0.45151177  0.88895597  0.77049005     0.16700
H1968       H  0.41399618  0.88257327  0.67796304     0.16600
C1969       C  0.54671890  0.00048756  0.77746763    -0.05000
C1970       C  0.52876517  0.03330748  0.76319476    -0.32400
C1971       C  0.51632736  0.05672217  0.79000958     0.36900
C1972       C  0.51409216  0.04103171  0.82805023    -0.05300
C1973       C  0.54138568  0.01711023  0.84531327    -0.32300
C1974       C  0.55654192  0.99458186  0.81950200     0.36800
H1975       H  0.52277125  0.03990847  0.73137898     0.17100
O1976       O  0.49509683  0.08592325  0.77451900    -0.59800
H1977       H  0.54426067  0.00908010  0.87679850     0.17200
O1978       O  0.57850139  0.96577116  0.83522299    -0.59900
H1979       H  0.60183179  0.97861059  0.84555954     0.44200
H1980       H  0.51067248  0.10369444  0.76177672     0.44100
C1981       C  0.50311643  0.84413506  0.47511803    -0.05000
C1982       C  0.53910196  0.84251263  0.49374251    -0.32400
C1983       C  0.54920042  0.83743428  0.53559694     0.36900
C1984       C  0.52342754  0.83872350  0.56101454    -0.05300
C1985       C  0.48889212  0.84916500  0.54250474    -0.32300
C1986       C  0.47820337  0.85005061  0.50051907     0.36800
H1987       H  0.56000240  0.84639134  0.47632864     0.17100
O1988       O  0.58478751  0.83476406  0.55154048    -0.59800
H1989       H  0.46965866  0.85784716  0.55972826     0.17200
O1990       O  0.44310462  0.85629456  0.98482701    -0.59900
H1991       H  0.43783187  0.88148569  0.49494628     0.44200
H1992       H  0.59432939  0.81517667  0.53579402     0.44100
C1993       C  0.99259367  0.85856137  0.82017834    -0.05000
C1994       C  0.98713150  0.86947140  0.77963947    -0.32400
C1995       C  0.01364641  0.86259771  0.75785474     0.36900
C1996       C  0.04495186  0.84692507  0.77855902    -0.05300
C1997       C  0.05358646  0.84792536  0.82054653    -0.32300
C1998       C  0.02677438  0.85378441  0.84205836     0.36800
H1999       H  0.96043724  0.87451706  0.76357318     0.17100
O2000       O  0.00600441  0.86313256  0.71664990    -0.59800
H2001       H  0.07908453  0.83816099  0.83624056     0.17200
O2002       O  0.03198252  0.84454632  0.88224822    -0.59900
H2003       H  0.03118371  0.86912955  0.89609488     0.44200
H2004       H  0.00723714  0.89050152  0.70879713     0.44100
C2005       C  0.02516041  0.67892737  0.58344271    -0.05000
C2006       C  0.98979214  0.01718464  0.56430575    -0.32400
C2007       C  0.97948427  0.01428385  0.52237028     0.36900
C2008       C  0.00556617  0.67876640  0.99725006    -0.05300
C2009       C  0.04136705  0.68188001  0.51631522    -0.32300
C2010       C  0.05134463  0.67989141  0.55831708     0.36800
H2011       H  0.96938262  0.02302306  0.58122185     0.17100
O2012       O  0.94382468  0.01547506  0.00631413    -0.59800
H2013       H  0.06239096  0.68600098  0.49934520     0.17200
O2014       O  0.08701555  0.67888178  0.57422777    -0.59900
H2015       H  0.09818911  0.70251638  0.56466621     0.44200
H2016       H  0.93104923  0.99772255  0.52255619     0.44100
loop_ 
_geom_bond_atom_site_label_1 
_geom_bond_atom_site_label_2 
_geom_bond_distance 
_geom_bond_site_symmetry_2 
_ccdc_geom_bond_type 
C1            C3   1.552       .  S
C1            C4   1.612   1_655  S
C1          C328   1.551   1_655  S
C1         C1349   1.581   1_545  S
C2            C8   1.530       .  S
C2            C7   1.516   1_655  S
C2          C678   1.538       .  S
C2           N59   1.502       .  S
C3           C11   1.402       .  A
C3            C6   1.366       .  A
C4         C1359   1.421   1_545  A
C4         C1351   1.418       .  A
C5          C673   1.581       .  S
C5           C19   1.433       .  A
C5            C8   1.402       .  A
C6         C1346   1.538   1_545  S
C6            C9   1.382       .  A
C7           C13   1.386       .  A
C7          C676   1.418       .  A
C8           C16   1.321       .  A
C9           N10   1.339       .  A
C9           H22   1.072       .  S
N10          C11   1.369       .  A
N10          C37   1.436       .  S
C11          H12   1.082       .  S
C13          N14   1.347       .  A
C13          H23   1.083       .  S
N14          C15   1.365       .  A
N14         N135   1.424       .  S
C15         C676   1.421       .  A
C15          H21   1.078       .  S
C16          N17   1.313       .  A
C16          H18   1.055       .  S
N17          C19   1.369       .  A
N17          C27   1.433       .  S
C19          H20   1.078       .  S
O24         Ni30   1.906       .  S
O24          C45   1.284       .  A
O25         Ni48   1.928       .  S
O25          C34   1.295       .  A
O26         Ni30   1.799       .  S
O26         Ni48   1.839       .  S
O26         Ni42   1.884       .  S
O26          H49   0.967       .  S
C27          O44   1.250       .  A
C27          O36   1.296       .  A
O28         Ni47   1.917       .  S
O28          C34   1.287       .  A
O29         Ni47   1.939       .  S
O29          C31   1.265       .  A
Ni30         O33   1.893       .  S
Ni30         O35   1.866       .  S
C31          C50   1.602       .  S
C31          O41   1.285       .  A
O32         Ni48   2.016       .  S
O32          C38   1.313       .  A
O33          C38   1.282       .  A
C34         N210   1.434       .  S
O35          C37   1.262       .  A
O36         Ni47   2.010       .  S
C37          O43   1.308       .  A
C38          C51   1.565       .  S
H39          O40   0.966       .  S
O40         Ni48   1.909       .  S
O40         Ni42   1.842       .  S
O40         Ni47   1.853       .  S
O41         Ni42   2.029       .  S
Ni42         O46   1.871       .  S
Ni42         O44   1.896       .  S
O43         Ni48   2.020       .  S
C45          O46   1.255       .  A
C45         C313   1.417       .  S
C50          C52   1.520       .  S
C50          C54   1.551       .  S
C50          C53   1.598       .  S
C51          C55   1.533       .  S
C51          C57   1.523       .  S
C51          C56   1.563       .  S
C52          C60   1.382       .  A
C52         C727   1.383       .  A
C53          C64   1.410       .  A
C53         C728   1.466       .  A
C54          C68   1.405       .  A
C54         C729   1.385       .  A
C55          C58   1.394       .  A
C55        C1396   1.383   1_545  A
C56          C62   1.380       .  A
C56        C1397   1.466   1_545  A
C57          C65   1.381       .  A
C57        C1398   1.385   1_545  A
C58        N1403   1.357   1_545  A
C58          H71   1.079       .  S
N59          C60   1.349       .  A
N59         C730   1.357       .  A
C60          H61   1.081       .  S
C62        N1407   1.348   1_545  A
C62          H72   1.083       .  S
N63          C64   1.367       .  A
N63         C734   1.348       .  A
N63          N86   1.419       .  S
C64          H70   1.081       .  S
C65        N1410   1.354   1_545  A
C65          H67   1.082       .  S
N66          C68   1.349       .  A
N66         C737   1.354       .  A
N66         C178   1.445       .  S
C68          H69   1.081       .  S
C73          C75   1.536       .  S
C73          C76   1.520       .  S
C73         C749   1.542       .  S
C73         N131   1.501       .  S
C74          C78   1.583       .  S
C74          C79   1.602       .  S
C74         C752   1.536       .  S
C74         C997   1.550       .  S
C75          C83   1.328       .  A
C75          C78   1.409       .  A
C76          C87   1.385   1_455  A
C76          C79   1.424       .  A
C77        C1417   1.542   1_545  S
C77          C91   1.376       .  A
C77          C80   1.358       .  A
C78          C81   1.430       .  A
C79          C85   1.414   1_455  A
C80        C1418   1.536       .  S
C80          C88   1.394       .  A
C81          N82   1.365       .  A
C81          H94   1.078       .  S
N82          C83   1.314       .  A
N82          C99   1.428       .  S
C83          H84   1.067       .  S
C85          N86   1.360       .  A
C85          H95   1.078       .  S
N86          C87   1.347       .  A
C87          H93   1.083       .  S
C88          N89   1.367       .  A
C88          H90   1.082       .  S
N89          C91   1.343       .  A
N89         C109   1.432       .  S
C91          H92   1.073       .  S
O96        Ni102   1.890       .  S
O96         C117   1.277       .  A
O97        Ni120   1.914       .  S
O97         C106   1.293       .  A
O98        Ni102   1.797       .  S
O98        Ni120   1.837       .  S
O98        Ni114   1.880       .  S
O98         H121   0.967       .  S
C99         O116   1.251       .  A
C99         O108   1.299       .  A
O100       Ni119   1.915       .  S
O100        C106   1.283       .  A
O101       Ni119   1.935       .  S
O101        C103   1.255       .  A
Ni102       O105   1.878       .  S
Ni102       O107   1.869       .  S
C103        C122   1.596       .  S
C103        O113   1.285       .  A
O104       Ni120   2.031       .  S
O104        C110   1.316       .  A
O105        C110   1.275       .  A
C106        N282   1.423       .  S
O107        C109   1.266       .  A
O108       Ni119   2.013       .  S
C109        O115   1.301       .  A
C110        C123   1.559       .  S
H111        O112   0.967       .  S
O112       Ni120   1.909       .  S
O112       Ni114   1.852       .  S
O112       Ni119   1.842       .  S
O113       Ni114   2.037       .  S
Ni114       O118   1.876       .  S
Ni114       O116   1.883       .  S
O115       Ni120   2.000       .  S
C117        O118   1.259       .  A
C117        C316   1.419       .  S
C122        C124   1.517       .  S
C122        C126   1.560       .  S
C122        C125   1.599       .  S
C123        C127   1.543       .  S
C123        C129   1.523       .  S
C123        C128   1.563   1_545  S
C124        C132   1.379       .  A
C124        C799   1.386       .  A
C125        C136   1.415       .  A
C125        C800   1.460       .  A
C126        C140   1.408       .  A
C126        C801   1.378       .  A
C127        C130   1.398       .  A
C127       C1468   1.386   1_545  A
C128        C134   1.383   1_565  A
C128       C1469   1.460       .  A
C129        C137   1.381       .  A
C129       C1470   1.378   1_545  A
C130       N1475   1.358   1_545  A
C130        H143   1.075       .  S
N131        C132   1.347       .  A
N131        C802   1.358       .  A
C132        H133   1.081       .  S
C134       N1479   1.348   1_545  A
C134        H144   1.082       .  S
N135        C136   1.370       .  A
N135        C806   1.348       .  A
C136        H142   1.082       .  S
C137       N1482   1.358   1_545  A
C137        H139   1.082       .  S
N138        C140   1.350       .  A
N138        C809   1.358       .  A
N138        C250   1.445       .  S
C140        H141   1.079       .  S
C145        C147   1.550       .  S
C145        C149   1.542       .  S
C145        C148   1.527       .  S
C145        N203   1.497       .  S
C146        C150   1.587       .  S
C146        C152   1.533       .  S
C146        C151   1.587       .  S
C146        C304   1.555       .  S
C147        C155   1.340       .  A
C147        C150   1.419       .  A
C148        C159   1.383       .  A
C148        C151   1.420       .  A
C149        C163   1.366       .  A
C149        C152   1.359       .  A
C150        C153   1.433       .  A
C151        C157   1.409       .  A
C152        C160   1.392       .  A
C153        N154   1.366       .  A
C153        H166   1.077       .  S
N154        C155   1.318       .  A
N154        C171   1.437       .  S
C155        H156   1.069       .  S
C157        N158   1.352       .  A
C157        H167   1.078       .  S
N158        C159   1.347       .  A
N158        N279   1.415       .  S
C159        H165   1.079       .  S
C160        N161   1.369       .  A
C160        H162   1.082       .  S
N161        C163   1.342       .  A
N161        C181   1.431       .  S
C163        H164   1.071       .  S
O168       Ni174   1.890       .  S
O168        C189   1.268       .  A
O169       Ni192   1.940       .  S
O169        C178   1.298       .  A
O170       Ni174   1.815       .  S
O170       Ni192   1.834       .  S
O170       Ni858   1.863       .  S
O170        H193   0.967       .  S
C171        O188   1.251       .  A
C171        O180   1.295       .  A
O172       Ni191   1.932       .  S
O172       C1522   1.287   1_545  A
O173       Ni191   1.916       .  S
O173        C175   1.263       .  A
Ni174       O177   1.860       .  S
Ni174       O179   1.875       .  S
C175        C194   1.586       .  S
C175        O185   1.291       .  A
O176       Ni192   2.033       .  S
O176        C182   1.322       .  A
O177        C182   1.267       .  A
C178        O844   1.287       .  A
O179        C181   1.273       .  A
O180       Ni191   2.015       .  S
C181        O187   1.301       .  A
C182        C195   1.551       .  S
H183        O184   0.966       .  S
O184       Ni186   1.868       .  S
O184       Ni191   1.854   1_565  S
O184      Ni1536   1.926       .  S
O185       Ni186   2.023   1_545  S
Ni186       O190   1.895       .  S
Ni186       O188   1.883   1_565  S
Ni186      O1514   1.863       .  S
O187       Ni192   1.990       .  S
C189        O862   1.269       .  A
C189        C289   1.444       .  S
O190       C1533   1.269       .  A
Ni192       O856   1.926       .  S
C194        C196   1.515       .  S
C194        C198   1.552       .  S
C194        C197   1.588       .  S
C195        C199   1.541       .  S
C195        C201   1.508       .  S
C195        C200   1.558       .  S
C196        C204   1.363       .  A
C196        C199   1.380       .  A
C197        C208   1.403       .  A
C197        C200   1.455       .  A
C198        C212   1.405       .  A
C198        C201   1.385       .  A
C199        C202   1.401       .  A
C200        C206   1.377       .  A
C201        C209   1.363       .  A
C202        N203   1.362       .  A
C202        H215   1.075       .  S
N203        C204   1.346       .  A
C204        H205   1.068       .  S
C206        N207   1.348       .  A
C206        H216   1.083       .  S
N207        C208   1.367       .  A
N207        N230   1.417       .  S
C208        H214   1.079       .  S
C209        N210   1.347       .  A
C209        H211   1.082       .  S
N210        C212   1.351       .  A
C212        H213   1.081       .  S
C217        C219   1.608       .  S
C217        C221   1.537       .  S
C217        C220   1.594       .  S
C217        C637   1.544       .  S
C218        C222   1.544       .  S
C218        C224   1.557       .  S
C218        C223   1.505       .  S
C218        N275   1.481       .  S
C219        C227   1.447       .  A
C219        C222   1.415       .  A
C220        C231   1.411       .  A
C220        C223   1.386       .  A
C221        C235   1.396       .  A
C221        C224   1.363       .  A
C222        C225   1.349       .  A
C223        C229   1.373       .  A
C224        C232   1.365       .  A
C225        N226   1.327       .  A
C225        H238   1.062       .  S
N226        C227   1.375       .  A
N226        C253   1.465       .  S
C227        H228   1.078       .  S
C229        N230   1.350       .  A
C229        H239   1.080       .  S
N230        C231   1.368       .  A
C231        H237   1.078       .  S
C232        N233   1.337       .  A
C232        H234   1.069       .  S
N233        C235   1.371       .  A
N233        C243   1.437       .  S
C235        H236   1.082       .  S
O240       Ni246   1.902       .  S
O240        C261   1.271       .  A
O241       Ni264   1.956       .  S
O241        C250   1.295       .  A
O242       Ni246   1.961       .  S
O242       Ni264   1.993       .  S
O242       Ni930   1.949       .  S
O242        H265   0.974       .  S
C243        O260   1.273       .  A
C243        O252   1.296       .  A
O244       Ni263   1.910       .  S
O244       C1594   1.272   1_545  A
O245       Ni263   1.948       .  S
O245        C247   1.260       .  A
Ni246       O249   1.947       .  S
Ni246       O251   1.856       .  S
C247        C266   1.551       .  S
C247        O257   1.263       .  A
O248       Ni264   1.966       .  S
O248        C254   1.295       .  A
O249        C254   1.274       .  A
C250        O916   1.272       .  A
O251        C253   1.262       .  A
O252       Ni263   1.974       .  S
C253        O259   1.257       .  A
C254        C267   1.550       .  S
H255        O256   0.967       .  S
O256       Ni258   1.880       .  S
O256       Ni263   1.863       .  S
O256      Ni1608   1.893   1_545  S
O257       Ni258   1.943       .  S
Ni258       O262   1.873       .  S
Ni258       O260   1.904       .  S
Ni258      O1586   1.950   1_545  S
O259       Ni264   2.036       .  S
C261        O934   1.251       .  A
C261        C292   1.448       .  S
O262       C1605   1.251       .  A
Ni264       O928   1.893       .  S
C266        C268   1.530       .  S
C266        C270   1.533       .  S
C266        C269   1.576       .  S
C267        C271   1.508       .  S
C267        C273   1.512       .  S
C267        C272   1.569       .  S
C268        C276   1.382       .  A
C268        C271   1.371       .  A
C269        C280   1.398       .  A
C269        C272   1.465       .  A
C270        C284   1.395       .  A
C270        C273   1.376       .  A
C271        C274   1.362       .  A
C272        C278   1.386       .  A
C273        C281   1.367       .  A
C274        N275   1.345       .  A
C274        H287   1.076       .  S
N275        C276   1.360       .  A
C276        H277   1.075       .  S
C278        N279   1.351       .  A
C278        H288   1.083       .  S
N279        C280   1.358       .  A
C280        H286   1.083       .  S
C281        N282   1.349       .  A
C281        H283   1.083       .  S
N282        C284   1.341       .  A
C284        H285   1.079       .  S
C289        C290   1.392       .  A
C289        C294   1.417       .  A
C290        C291   1.387       .  A
C290        H295   1.082       .  S
C291        C292   1.404       .  A
C291        O296   1.364       .  S
C292        C293   1.397       .  A
C293        C294   1.397       .  A
C293        H297   1.083       .  S
C294        O298   1.372       .  S
O296        H300   0.990       .  S
O298        H299   0.992       .  S
C301        C553   1.544       .  S
C301        C302   1.407       .  A
C301        C306   1.410   1_556  A
C302        C303   1.409   1_556  A
C302        H307   1.074       .  S
C303        C304   1.416       .  A
C303        O308   1.374       .  S
C304        C305   1.411       .  A
C305        C306   1.406       .  A
C305        H309   1.068       .  S
C306        O646   1.372   1_554  S
O308        H312   0.992       .  S
O310        C642   1.372       .  S
O310        H647   0.992       .  S
H311        O646   0.992       .  S
C313        C314   1.397       .  A
C313        C318   1.394   1_655  A
C314        C315   1.380   1_655  A
C314        H319   1.084       .  S
C315        C316   1.397       .  A
C315        O320   1.372       .  S
C316        C317   1.400       .  A
C317        C318   1.377       .  A
C317        H321   1.085       .  S
C318        O322   1.372       .  S
O320        H324   0.991       .  S
O322        H323   0.991       .  S
C325       C1418   1.550       .  S
C325        C330   1.418       .  A
C325       C1670   1.403   1_455  A
C326        C327   1.407       .  A
C326        C997   1.403   1_655  A
C326        H331   1.070       .  S
C327       C1336   1.420   1_654  A
C327        O668   1.374       .  S
C328       C2007   1.420   1_455  A
C328        C665   1.404       .  A
C329        C330   1.405       .  A
C329        C664   1.404   1_554  A
C329        H333   1.069   1_554  S
C330        O334   1.372       .  S
O332        C663   1.374       .  S
O332        H672   0.992       .  S
O334        H335   0.992       .  S
H336        O668   0.992       .  S
C337        C339   1.552       .  S
C337       C1685   1.581   1_545  S
C337        C340   1.612   1_655  S
C337        C664   1.551   1_655  S
C338       C1014   1.538       .  S
C338        C344   1.530       .  S
C338        C343   1.516   1_655  S
C338        N395   1.502       .  S
C339        C347   1.402       .  A
C339        C342   1.366       .  A
C340       C1695   1.421   1_545  A
C340       C1687   1.418       .  A
C341       C1009   1.581       .  S
C341        C355   1.433       .  A
C341        C344   1.402       .  A
C342       C1682   1.538   1_545  S
C342        C345   1.382       .  A
C343       C1012   1.418       .  A
C343        C349   1.386       .  A
C344        C352   1.321       .  A
C345        N346   1.339       .  A
C345        H358   1.072       .  S
N346        C347   1.369       .  A
N346        C373   1.436       .  S
C347        H348   1.082       .  S
C349        N350   1.347       .  A
C349        H359   1.083       .  S
N350        C351   1.365       .  A
N350        N471   1.424       .  S
C351       C1012   1.421       .  A
C351        H357   1.078       .  S
C352        N353   1.313       .  A
C352        H354   1.055       .  S
N353        C355   1.369       .  A
N353        C363   1.433       .  S
C355        H356   1.078       .  S
O360       Ni366   1.906       .  S
O360        C381   1.284       .  A
O361       Ni384   1.928       .  S
O361        C370   1.295       .  A
O362       Ni366   1.799       .  S
O362       Ni384   1.839       .  S
O362       Ni378   1.884       .  S
O362        H385   0.967       .  S
C363        O380   1.250       .  A
C363        O372   1.296       .  A
O364       Ni383   1.917       .  S
O364        C370   1.287       .  A
O365       Ni383   1.939       .  S
O365        C367   1.265       .  A
Ni366       O369   1.893       .  S
Ni366       O371   1.866       .  S
C367        C386   1.602       .  S
C367        O377   1.285       .  A
O368       Ni384   2.016       .  S
O368        C374   1.313       .  A
O369        C374   1.282       .  A
C370        N546   1.434       .  S
O371        C373   1.262       .  A
O372       Ni383   2.010       .  S
C373        O379   1.308       .  A
C374        C387   1.565       .  S
H375        O376   0.966       .  S
O376       Ni384   1.909       .  S
O376       Ni378   1.842       .  S
O376       Ni383   1.853       .  S
O377       Ni378   2.029       .  S
Ni378       O382   1.871       .  S
Ni378       O380   1.896       .  S
O379       Ni384   2.020       .  S
C381        O382   1.255       .  A
C381        C649   1.417       .  S
C386        C388   1.520       .  S
C386        C390   1.551       .  S
C386        C389   1.598       .  S
C387        C391   1.533       .  S
C387        C393   1.523       .  S
C387        C392   1.563       .  S
C388        C396   1.382       .  A
C388       C1063   1.383       .  A
C389        C400   1.410       .  A
C389       C1064   1.466       .  A
C390        C404   1.405       .  A
C390       C1065   1.385       .  A
C391       C1732   1.383   1_545  A
C391        C394   1.394       .  A
C392       C1733   1.466   1_545  A
C392        C398   1.380       .  A
C393       C1734   1.385   1_545  A
C393        C401   1.381       .  A
C394       N1739   1.357   1_545  A
C394        H407   1.079       .  S
N395       C1066   1.357       .  A
N395        C396   1.349       .  A
C396        H397   1.081       .  S
C398       N1743   1.348   1_545  A
C398        H408   1.083       .  S
N399       C1070   1.348       .  A
N399        C400   1.367       .  A
N399        N422   1.419       .  S
C400        H406   1.081       .  S
C401       N1746   1.354   1_545  A
C401        H403   1.082       .  S
N402       C1073   1.354       .  A
N402        C404   1.349       .  A
N402        C514   1.445       .  S
C404        H405   1.081       .  S
C409        C411   1.536       .  S
C409       C1085   1.542       .  S
C409        C412   1.520       .  S
C409        N467   1.501       .  S
C410        C414   1.583       .  S
C410       C1088   1.536       .  S
C410        C415   1.602       .  S
C410       C1333   1.550       .  S
C411        C419   1.328       .  A
C411        C414   1.409       .  A
C412        C423   1.385   1_455  A
C412        C415   1.424       .  A
C413       C1753   1.542   1_545  S
C413        C427   1.376       .  A
C413        C416   1.358       .  A
C414        C417   1.430       .  A
C415        C421   1.414   1_455  A
C416       C1754   1.536       .  S
C416        C424   1.394       .  A
C417        N418   1.365       .  A
C417        H430   1.078       .  S
N418        C419   1.314       .  A
N418        C435   1.428       .  S
C419        H420   1.067       .  S
C421        N422   1.360       .  A
C421        H431   1.078       .  S
N422        C423   1.347       .  A
C423        H429   1.083       .  S
C424        N425   1.367       .  A
C424        H426   1.082       .  S
N425        C427   1.343       .  A
N425        C445   1.432       .  S
C427        H428   1.073       .  S
O432       Ni438   1.890       .  S
O432        C453   1.277       .  A
O433       Ni456   1.914       .  S
O433        C442   1.293       .  A
O434       Ni438   1.797       .  S
O434       Ni456   1.837       .  S
O434       Ni450   1.880       .  S
O434        H457   0.967       .  S
C435        O452   1.251       .  A
C435        O444   1.299       .  A
O436       Ni455   1.915       .  S
O436        C442   1.283       .  A
O437       Ni455   1.935       .  S
O437        C439   1.255       .  A
Ni438       O441   1.878       .  S
Ni438       O443   1.869       .  S
C439        C458   1.596       .  S
C439        O449   1.285       .  A
O440       Ni456   2.031       .  S
O440        C446   1.316       .  A
O441        C446   1.275       .  A
C442        N618   1.423       .  S
O443        C445   1.266       .  A
O444       Ni455   2.013       .  S
C445        O451   1.301       .  A
C446        C459   1.558       .  S
H447        O448   0.967       .  S
O448       Ni456   1.909       .  S
O448       Ni450   1.851       .  S
O448       Ni455   1.842       .  S
O449       Ni450   2.037       .  S
Ni450       O454   1.876       .  S
Ni450       O452   1.883       .  S
O451       Ni456   2.001       .  S
C453        O454   1.259       .  A
C453        C652   1.419       .  S
C458        C460   1.517       .  S
C458        C462   1.560       .  S
C458        C461   1.599       .  S
C459        C463   1.543       .  S
C459        C465   1.523       .  S
C459        C464   1.563   1_545  S
C460        C468   1.379       .  A
C460       C1135   1.386       .  A
C461        C472   1.415       .  A
C461       C1136   1.460       .  A
C462        C476   1.408       .  A
C462       C1137   1.378       .  A
C463       C1804   1.386   1_545  A
C463        C466   1.398       .  A
C464       C1805   1.460       .  A
C464        C470   1.383   1_565  A
C465       C1806   1.378   1_545  A
C465        C473   1.381       .  A
C466       N1811   1.358   1_545  A
C466        H479   1.075       .  S
N467       C1138   1.358       .  A
N467        C468   1.347       .  A
C468        H469   1.081       .  S
C470       N1815   1.348   1_545  A
C470        H480   1.082       .  S
N471       C1142   1.348       .  A
N471        C472   1.370       .  A
C472        H478   1.082       .  S
C473       N1818   1.358   1_545  A
C473        H475   1.082       .  S
N474       C1145   1.358       .  A
N474        C476   1.350       .  A
N474        C586   1.445       .  S
C476        H477   1.079       .  S
C481        C483   1.550       .  S
C481        C485   1.542       .  S
C481        C484   1.527       .  S
C481        N539   1.497       .  S
C482        C486   1.587       .  S
C482        C488   1.533       .  S
C482        C487   1.587       .  S
C482        C640   1.555       .  S
C483        C491   1.340       .  A
C483        C486   1.419       .  A
C484        C495   1.383       .  A
C484        C487   1.420       .  A
C485        C499   1.366       .  A
C485        C488   1.359       .  A
C486        C489   1.433       .  A
C487        C493   1.409       .  A
C488        C496   1.392       .  A
C489        N490   1.366       .  A
C489        H502   1.077       .  S
N490        C491   1.318       .  A
N490        C507   1.437       .  S
C491        H492   1.069       .  S
C493        N494   1.352       .  A
C493        H503   1.078       .  S
N494        C495   1.347       .  A
N494        N615   1.415       .  S
C495        H501   1.079       .  S
C496        N497   1.369       .  A
C496        H498   1.082       .  S
N497        C499   1.342       .  A
N497        C517   1.431       .  S
C499        H500   1.071       .  S
O504       Ni510   1.890       .  S
O504        C525   1.268       .  A
O505       Ni528   1.940       .  S
O505        C514   1.298       .  A
O506       Ni510   1.815       .  S
O506       Ni528   1.834       .  S
O506      Ni1194   1.863       .  S
O506        H529   0.967       .  S
C507        O524   1.251       .  A
C507        O516   1.295       .  A
O508       Ni527   1.932       .  S
O508       C1858   1.287   1_545  A
O509       Ni527   1.916       .  S
O509        C511   1.263       .  A
Ni510       O513   1.860       .  S
Ni510       O515   1.875       .  S
C511        C530   1.586       .  S
C511        O521   1.291       .  A
O512       Ni528   2.033       .  S
O512        C518   1.322       .  A
O513        C518   1.267       .  A
C514       O1180   1.287       .  A
O515        C517   1.273       .  A
O516       Ni527   2.015       .  S
C517        O523   1.301       .  A
C518        C531   1.551       .  S
H519        O520   0.966       .  S
O520      Ni1872   1.926       .  S
O520       Ni522   1.868       .  S
O520       Ni527   1.854   1_565  S
O521       Ni522   2.023   1_545  S
Ni522       O526   1.895       .  S
Ni522       O524   1.883   1_565  S
Ni522      O1850   1.863       .  S
O523       Ni528   1.990       .  S
C525       O1198   1.269       .  A
C525        C625   1.444       .  S
O526       C1869   1.269       .  A
Ni528      O1192   1.926       .  S
C530        C532   1.515       .  S
C530        C534   1.552       .  S
C530        C533   1.588       .  S
C531        C535   1.541       .  S
C531        C537   1.508       .  S
C531        C536   1.558       .  S
C532        C540   1.363       .  A
C532        C535   1.380       .  A
C533        C544   1.403       .  A
C533        C536   1.455       .  A
C534        C548   1.405       .  A
C534        C537   1.385       .  A
C535        C538   1.401       .  A
C536        C542   1.377       .  A
C537        C545   1.363       .  A
C538        N539   1.362       .  A
C538        H551   1.075       .  S
N539        C540   1.346       .  A
C540        H541   1.068       .  S
C542        N543   1.348       .  A
C542        H552   1.083       .  S
N543        C544   1.367       .  A
N543        N566   1.417       .  S
C544        H550   1.079       .  S
C545        N546   1.347       .  A
C545        H547   1.082       .  S
N546        C548   1.351       .  A
C548        H549   1.081       .  S
C553        C555   1.608       .  S
C553        C557   1.537       .  S
C553        C556   1.594       .  S
C554        C558   1.544       .  S
C554        C560   1.557       .  S
C554        C559   1.505       .  S
C554        N611   1.481       .  S
C555        C563   1.447       .  A
C555        C558   1.415       .  A
C556        C567   1.411       .  A
C556        C559   1.386       .  A
C557        C571   1.396       .  A
C557        C560   1.363       .  A
C558        C561   1.349       .  A
C559        C565   1.373       .  A
C560        C568   1.365       .  A
C561        N562   1.327       .  A
C561        H574   1.062       .  S
N562        C563   1.375       .  A
N562        C589   1.465       .  S
C563        H564   1.078       .  S
C565        N566   1.350       .  A
C565        H575   1.080       .  S
N566        C567   1.368       .  A
C567        H573   1.078       .  S
C568        N569   1.337       .  A
C568        H570   1.069       .  S
N569        C571   1.371       .  A
N569        C579   1.437       .  S
C571        H572   1.082       .  S
O576       Ni582   1.902       .  S
O576        C597   1.271       .  A
O577       Ni600   1.956       .  S
O577        C586   1.295       .  A
O578       Ni582   1.961       .  S
O578       Ni600   1.993       .  S
O578      Ni1266   1.949       .  S
O578        H601   0.973       .  S
C579        O596   1.273       .  A
C579        O588   1.296       .  A
O580       Ni599   1.910       .  S
O580       C1930   1.273   1_545  A
O581       Ni599   1.948       .  S
O581        C583   1.260       .  A
Ni582       O585   1.947       .  S
Ni582       O587   1.856       .  S
C583        C602   1.551       .  S
C583        O593   1.263       .  A
O584       Ni600   1.966       .  S
O584        C590   1.295       .  A
O585        C590   1.274       .  A
C586       O1252   1.273       .  A
O587        C589   1.262       .  A
O588       Ni599   1.974       .  S
C589        O595   1.257       .  A
C590        C603   1.550       .  S
H591        O592   0.967       .  S
O592      Ni1944   1.893   1_545  S
O592       Ni594   1.880       .  S
O592       Ni599   1.863       .  S
O593       Ni594   1.943       .  S
Ni594       O598   1.873       .  S
Ni594       O596   1.904       .  S
Ni594      O1922   1.950   1_545  S
O595       Ni600   2.036       .  S
C597       O1270   1.251       .  A
C597        C628   1.448       .  S
O598       C1941   1.251       .  A
Ni600      O1264   1.893       .  S
C602        C604   1.530       .  S
C602        C606   1.533       .  S
C602        C605   1.576       .  S
C603        C607   1.508       .  S
C603        C609   1.512       .  S
C603        C608   1.569       .  S
C604        C612   1.382       .  A
C604        C607   1.371       .  A
C605        C616   1.398       .  A
C605        C608   1.465       .  A
C606        C620   1.395       .  A
C606        C609   1.376       .  A
C607        C610   1.362       .  A
C608        C614   1.386       .  A
C609        C617   1.367       .  A
C610        N611   1.345       .  A
C610        H623   1.076       .  S
N611        C612   1.360       .  A
C612        H613   1.075       .  S
C614        N615   1.351       .  A
C614        H624   1.083       .  S
N615        C616   1.358       .  A
C616        H622   1.083       .  S
C617        N618   1.349       .  A
C617        H619   1.083       .  S
N618        C620   1.341       .  A
C620        H621   1.079       .  S
C625        C626   1.392       .  A
C625        C630   1.417       .  A
C626        C627   1.387       .  A
C626        H631   1.082       .  S
C627        C628   1.404       .  A
C627        O632   1.364       .  S
C628        C629   1.397       .  A
C629        C630   1.397       .  A
C629        H633   1.083       .  S
C630        O634   1.372       .  S
O632        H636   0.990       .  S
O634        H635   0.992       .  S
C637        C638   1.407       .  A
C637        C642   1.410       .  A
C638        C639   1.409       .  A
C638        H643   1.074       .  S
C639        C640   1.416       .  A
C639        O644   1.374       .  S
C640        C641   1.411       .  A
C641        C642   1.406       .  A
C641        H645   1.068       .  S
O644        H648   0.992       .  S
C649        C650   1.397       .  A
C649        C654   1.394   1_655  A
C650        C651   1.380   1_655  A
C650        H655   1.084       .  S
C651        C652   1.397       .  A
C651        O656   1.372       .  S
C652        C653   1.400       .  A
C653        C654   1.377       .  A
C653        H657   1.085       .  S
C654        O658   1.372       .  S
O656        H660   0.991       .  S
O658        H659   0.991       .  S
C661       C1754   1.550       .  S
C661       C2006   1.403   1_455  A
C661        C666   1.418       .  A
C662       C1333   1.403   1_655  A
C662        C663   1.407       .  A
C662        H667   1.070       .  S
C663       C1000   1.420   1_655  A
C664       C1671   1.420   1_456  A
C665        C666   1.405       .  A
C665        H669   1.069       .  S
C666        O670   1.372       .  S
O670        H671   0.992       .  S
C673        C675   1.552       .  S
C673        C676   1.612   1_655  S
C673       C1000   1.551   1_655  S
C674       C1350   1.538       .  S
C674        C680   1.530       .  S
C674        C679   1.516   1_655  S
C674        N731   1.502       .  S
C675        C683   1.402       .  A
C675        C678   1.366       .  A
C677       C1345   1.581       .  S
C677        C691   1.433       .  A
C677        C680   1.402       .  A
C678        C681   1.382       .  A
C679       C1348   1.418       .  A
C679        C685   1.386       .  A
C680        C688   1.321       .  A
C681        N682   1.339       .  A
C681        H694   1.072       .  S
N682        C683   1.369       .  A
N682        C709   1.436       .  S
C683        H684   1.082       .  S
C685        N686   1.347       .  A
C685        H695   1.083       .  S
N686        C687   1.365       .  A
N686        N807   1.424       .  S
C687       C1348   1.421       .  A
C687        H693   1.078       .  S
C688        N689   1.313       .  A
C688        H690   1.055       .  S
N689        C691   1.369       .  A
N689        C699   1.433       .  S
C691        H692   1.078       .  S
O696       Ni702   1.906       .  S
O696        C717   1.284       .  A
O697       Ni720   1.928       .  S
O697        C706   1.295       .  A
O698       Ni702   1.799       .  S
O698       Ni720   1.839       .  S
O698       Ni714   1.884       .  S
O698        H721   0.967       .  S
C699        O716   1.250       .  A
C699        O708   1.296       .  A
O700       Ni719   1.917       .  S
O700        C706   1.287       .  A
O701       Ni719   1.939       .  S
O701        C703   1.265       .  A
Ni702       O705   1.893       .  S
Ni702       O707   1.866       .  S
C703        C722   1.602       .  S
C703        O713   1.285       .  A
O704       Ni720   2.016       .  S
O704        C710   1.313       .  A
O705        C710   1.282       .  A
C706        N882   1.434       .  S
O707        C709   1.262       .  A
O708       Ni719   2.010       .  S
C709        O715   1.308       .  A
C710        C723   1.565       .  S
H711        O712   0.966       .  S
O712       Ni720   1.909       .  S
O712       Ni714   1.842       .  S
O712       Ni719   1.853       .  S
O713       Ni714   2.029       .  S
Ni714       O718   1.871       .  S
Ni714       O716   1.896       .  S
O715       Ni720   2.020       .  S
C717        O718   1.255       .  A
C717        C985   1.417       .  S
C722        C724   1.520       .  S
C722        C726   1.551       .  S
C722        C725   1.598       .  S
C723        C727   1.533       .  S
C723        C729   1.523       .  S
C723        C728   1.563       .  S
C724        C732   1.382       .  A
C724       C1399   1.383       .  A
C725        C736   1.410       .  A
C725       C1400   1.466       .  A
C726        C740   1.406       .  A
C726       C1401   1.385       .  A
C727        C730   1.394       .  A
C728        C734   1.380       .  A
C729        C737   1.381       .  A
C730        H743   1.079       .  S
N731       C1402   1.357       .  A
N731        C732   1.349       .  A
C732        H733   1.081       .  S
C734        H744   1.083       .  S
N735       C1406   1.348       .  A
N735        C736   1.367       .  A
N735        N758   1.419       .  S
C736        H742   1.081       .  S
C737        H739   1.082       .  S
N738       C1409   1.354       .  A
N738        C740   1.349       .  A
N738        C850   1.445       .  S
C740        H741   1.081       .  S
C745        C747   1.536       .  S
C745       C1421   1.542       .  S
C745        C748   1.520       .  S
C745        N803   1.501       .  S
C746        C750   1.583       .  S
C746       C1424   1.536       .  S
C746        C751   1.602       .  S
C746       C1669   1.550       .  S
C747        C755   1.328       .  A
C747        C750   1.409       .  A
C748        C759   1.385   1_455  A
C748        C751   1.424       .  A
C749        C763   1.376       .  A
C749        C752   1.358       .  A
C750        C753   1.430       .  A
C751        C757   1.414   1_455  A
C752        C760   1.394       .  A
C753        N754   1.365       .  A
C753        H766   1.078       .  S
N754        C755   1.314       .  A
N754        C771   1.428       .  S
C755        H756   1.067       .  S
C757        N758   1.360       .  A
C757        H767   1.078       .  S
N758        C759   1.347       .  A
C759        H765   1.083       .  S
C760        N761   1.367       .  A
C760        H762   1.082       .  S
N761        C763   1.343       .  A
N761        C781   1.432       .  S
C763        H764   1.073       .  S
O768       Ni774   1.890       .  S
O768        C789   1.277       .  A
O769       Ni792   1.914       .  S
O769        C778   1.293       .  A
O770       Ni774   1.797       .  S
O770       Ni792   1.837       .  S
O770       Ni786   1.880       .  S
O770        H793   0.967       .  S
C771        O788   1.251       .  A
C771        O780   1.299       .  A
O772       Ni791   1.915       .  S
O772        C778   1.283       .  A
O773       Ni791   1.935       .  S
O773        C775   1.255       .  A
Ni774       O777   1.878       .  S
Ni774       O779   1.869       .  S
C775        C794   1.596       .  S
C775        O785   1.285       .  A
O776       Ni792   2.031       .  S
O776        C782   1.316       .  A
O777        C782   1.275       .  A
C778        N954   1.423       .  S
O779        C781   1.266       .  A
O780       Ni791   2.013       .  S
C781        O787   1.301       .  A
C782        C795   1.558       .  S
H783        O784   0.967       .  S
O784       Ni792   1.909       .  S
O784       Ni786   1.851       .  S
O784       Ni791   1.842       .  S
O785       Ni786   2.037       .  S
Ni786       O790   1.876       .  S
Ni786       O788   1.883       .  S
O787       Ni792   2.001       .  S
C789        O790   1.259       .  A
C789        C988   1.419       .  S
C794        C796   1.517       .  S
C794        C798   1.560       .  S
C794        C797   1.599       .  S
C795        C799   1.543       .  S
C795        C801   1.523       .  S
C795        C800   1.563       .  S
C796        C804   1.379       .  A
C796       C1471   1.386       .  A
C797        C808   1.415       .  A
C797       C1472   1.460       .  A
C798        C812   1.408       .  A
C798       C1473   1.378       .  A
C799        C802   1.398       .  A
C800        C806   1.383       .  A
C801        C809   1.381       .  A
C802        H815   1.075       .  S
N803       C1474   1.358       .  A
N803        C804   1.347       .  A
C804        H805   1.081       .  S
C806        H816   1.082       .  S
N807       C1478   1.348       .  A
N807        C808   1.370       .  A
C808        H814   1.082       .  S
C809        H811   1.082       .  S
N810       C1481   1.358       .  A
N810        C812   1.350       .  A
N810        C922   1.445       .  S
C812        H813   1.079       .  S
C817        C819   1.550       .  S
C817        C821   1.542       .  S
C817        C820   1.527       .  S
C817        N875   1.497       .  S
C818        C822   1.587       .  S
C818        C824   1.533       .  S
C818        C823   1.587       .  S
C818        C976   1.555       .  S
C819        C827   1.340       .  A
C819        C822   1.419       .  A
C820        C831   1.383       .  A
C820        C823   1.420       .  A
C821        C835   1.366       .  A
C821        C824   1.359       .  A
C822        C825   1.433       .  A
C823        C829   1.409       .  A
C824        C832   1.392       .  A
C825        N826   1.366       .  A
C825        H838   1.077       .  S
N826        C827   1.318       .  A
N826        C843   1.437       .  S
C827        H828   1.069       .  S
C829        N830   1.352       .  A
C829        H839   1.078       .  S
N830        C831   1.347       .  A
N830        N951   1.415       .  S
C831        H837   1.079       .  S
C832        N833   1.369       .  A
C832        H834   1.082       .  S
N833        C835   1.342       .  A
N833        C853   1.431       .  S
C835        H836   1.071       .  S
O840       Ni846   1.890       .  S
O840        C861   1.268       .  A
O841       Ni864   1.940       .  S
O841        C850   1.298       .  A
O842       Ni846   1.815       .  S
O842       Ni864   1.834       .  S
O842      Ni1530   1.863       .  S
O842        H865   0.967       .  S
C843        O860   1.251       .  A
C843        O852   1.295       .  A
O844       Ni863   1.932       .  S
O845       Ni863   1.916       .  S
O845        C847   1.263       .  A
Ni846       O849   1.860       .  S
Ni846       O851   1.875       .  S
C847        C866   1.586       .  S
C847        O857   1.291       .  A
O848       Ni864   2.033       .  S
O848        C854   1.322       .  A
O849        C854   1.267       .  A
C850       O1516   1.287       .  A
O851        C853   1.273       .  A
O852       Ni863   2.015       .  S
C853        O859   1.301       .  A
C854        C867   1.551       .  S
H855        O856   0.966       .  S
O856       Ni858   1.868       .  S
O856       Ni863   1.854       .  S
O857       Ni858   2.023       .  S
Ni858       O862   1.895       .  S
Ni858       O860   1.883       .  S
O859       Ni864   1.990       .  S
C861       O1534   1.269       .  A
C861        C961   1.444       .  S
Ni864      O1528   1.926       .  S
C866        C868   1.515       .  S
C866        C870   1.552       .  S
C866        C869   1.588       .  S
C867        C871   1.541       .  S
C867        C873   1.508       .  S
C867        C872   1.558       .  S
C868        C876   1.363       .  A
C868        C871   1.380       .  A
C869        C880   1.403       .  A
C869        C872   1.455       .  A
C870        C884   1.405       .  A
C870        C873   1.385       .  A
C871        C874   1.401       .  A
C872        C878   1.377       .  A
C873        C881   1.363       .  A
C874        N875   1.362       .  A
C874        H887   1.075       .  S
N875        C876   1.346       .  A
C876        H877   1.068       .  S
C878        N879   1.348       .  A
C878        H888   1.083       .  S
N879        C880   1.367       .  A
N879        N902   1.417       .  S
C880        H886   1.079       .  S
C881        N882   1.347       .  A
C881        H883   1.082       .  S
N882        C884   1.351       .  A
C884        H885   1.081       .  S
C889        C891   1.608       .  S
C889        C893   1.537       .  S
C889        C892   1.594       .  S
C889       C1309   1.544       .  S
C890        C894   1.544       .  S
C890        C896   1.557       .  S
C890        C895   1.505       .  S
C890        N947   1.481       .  S
C891        C899   1.447       .  A
C891        C894   1.415       .  A
C892        C903   1.411       .  A
C892        C895   1.386       .  A
C893        C907   1.396       .  A
C893        C896   1.363       .  A
C894        C897   1.349       .  A
C895        C901   1.373       .  A
C896        C904   1.365       .  A
C897        N898   1.327       .  A
C897        H910   1.062       .  S
N898        C899   1.375       .  A
N898        C925   1.465       .  S
C899        H900   1.078       .  S
C901        N902   1.350       .  A
C901        H911   1.080       .  S
N902        C903   1.368       .  A
C903        H909   1.078       .  S
C904        N905   1.337       .  A
C904        H906   1.069       .  S
N905        C907   1.371       .  A
N905        C915   1.437       .  S
C907        H908   1.082       .  S
O912       Ni918   1.902       .  S
O912        C933   1.271       .  A
O913       Ni936   1.956       .  S
O913        C922   1.295       .  A
O914       Ni918   1.961       .  S
O914       Ni936   1.993       .  S
O914      Ni1602   1.949       .  S
O914        H937   0.973       .  S
C915        O932   1.273       .  A
C915        O924   1.296       .  A
O916       Ni935   1.910       .  S
O917       Ni935   1.948       .  S
O917        C919   1.260       .  A
Ni918       O921   1.947       .  S
Ni918       O923   1.856       .  S
C919        C938   1.551       .  S
C919        O929   1.263       .  A
O920       Ni936   1.966       .  S
O920        C926   1.295       .  A
O921        C926   1.274       .  A
C922       O1588   1.272       .  A
O923        C925   1.262       .  A
O924       Ni935   1.974       .  S
C925        O931   1.257       .  A
C926        C939   1.550       .  S
H927        O928   0.967       .  S
O928       Ni930   1.880       .  S
O928       Ni935   1.863       .  S
O929       Ni930   1.943       .  S
Ni930       O934   1.873       .  S
Ni930       O932   1.904       .  S
O931       Ni936   2.036       .  S
C933       O1606   1.251       .  A
C933        C964   1.448       .  S
Ni936      O1600   1.893       .  S
C938        C940   1.530       .  S
C938        C942   1.533       .  S
C938        C941   1.576       .  S
C939        C943   1.508       .  S
C939        C945   1.512       .  S
C939        C944   1.569       .  S
C940        C948   1.382       .  A
C940        C943   1.371       .  A
C941        C952   1.398       .  A
C941        C944   1.465       .  A
C942        C956   1.395       .  A
C942        C945   1.376       .  A
C943        C946   1.362       .  A
C944        C950   1.386       .  A
C945        C953   1.367       .  A
C946        N947   1.345       .  A
C946        H959   1.076       .  S
N947        C948   1.360       .  A
C948        H949   1.075       .  S
C950        N951   1.351       .  A
C950        H960   1.083       .  S
N951        C952   1.358       .  A
C952        H958   1.083       .  S
C953        N954   1.349       .  A
C953        H955   1.083       .  S
N954        C956   1.341       .  A
C956        H957   1.079       .  S
C961        C962   1.392       .  A
C961        C966   1.417       .  A
C962        C963   1.387       .  A
C962        H967   1.082       .  S
C963        C964   1.404       .  A
C963        O968   1.364       .  S
C964        C965   1.397       .  A
C965        C966   1.397       .  A
C965        H969   1.083       .  S
C966        O970   1.372       .  S
O968        H972   0.990       .  S
O970        H971   0.992       .  S
C973       C1225   1.544       .  S
C973        C974   1.407       .  A
C973        C978   1.410   1_556  A
C974        C975   1.409   1_556  A
C974        H979   1.074       .  S
C975        C976   1.416       .  A
C975        O980   1.374       .  S
C976        C977   1.411       .  A
C977        C978   1.406       .  A
C977        H981   1.068       .  S
C978       O1318   1.372   1_554  S
O980        H984   0.992       .  S
O982       C1314   1.372       .  S
O982       H1319   0.992       .  S
H983       O1318   0.992       .  S
C985        C986   1.397       .  A
C985        C990   1.394   1_655  A
C986        C987   1.380   1_655  A
C986        H991   1.084       .  S
C987        C988   1.397       .  A
C987        O992   1.372       .  S
C988        C989   1.400       .  A
C989        C990   1.377       .  A
C989        H993   1.085       .  S
C990        O994   1.372       .  S
O992        H996   0.991       .  S
O994        H995   0.991       .  S
C997       C1002   1.418       .  A
C998       C1669   1.403   1_655  A
C998        C999   1.407       .  A
C998       H1003   1.070       .  S
C999       C2008   1.420   1_654  A
C999       O1340   1.374       .  S
C1000      C1337   1.404       .  A
C1001      C1336   1.404   1_554  A
C1001      C1002   1.405       .  A
C1001      H1005   1.069   1_554  S
C1002      O1006   1.372       .  S
O1004      C1335   1.374       .  S
O1004      H1344   0.992       .  S
O1006      H1007   0.992       .  S
H1008      O1340   0.992       .  S
C1009      C1011   1.552       .  S
C1009      C1012   1.612   1_655  S
C1009      C1336   1.551   1_655  S
C1010      C1686   1.538       .  S
C1010      C1016   1.530       .  S
C1010      C1015   1.516   1_655  S
C1010      N1067   1.502       .  S
C1011      C1019   1.402       .  A
C1011      C1014   1.366       .  A
C1013      C1681   1.581       .  S
C1013      C1027   1.433       .  A
C1013      C1016   1.402       .  A
C1014      C1017   1.382       .  A
C1015      C1684   1.418       .  A
C1015      C1021   1.386       .  A
C1016      C1024   1.321       .  A
C1017      N1018   1.339       .  A
C1017      H1030   1.072       .  S
N1018      C1019   1.369       .  A
N1018      C1045   1.436       .  S
C1019      H1020   1.082       .  S
C1021      N1022   1.347       .  A
C1021      H1031   1.083       .  S
N1022      C1023   1.365       .  A
N1022      N1143   1.424       .  S
C1023      C1684   1.421       .  A
C1023      H1029   1.078       .  S
C1024      N1025   1.313       .  A
C1024      H1026   1.055       .  S
N1025      C1027   1.369       .  A
N1025      C1035   1.433       .  S
C1027      H1028   1.078       .  S
O1032     Ni1038   1.906       .  S
O1032      C1053   1.284       .  A
O1033     Ni1056   1.928       .  S
O1033      C1042   1.294       .  A
O1034     Ni1038   1.799       .  S
O1034     Ni1056   1.839       .  S
O1034     Ni1050   1.884       .  S
O1034      H1057   0.967       .  S
C1035      O1052   1.250       .  A
C1035      O1044   1.296       .  A
O1036     Ni1055   1.917       .  S
O1036      C1042   1.287       .  A
O1037     Ni1055   1.939       .  S
O1037      C1039   1.265       .  A
Ni1038     O1041   1.893       .  S
Ni1038     O1043   1.866       .  S
C1039      C1058   1.602       .  S
C1039      O1049   1.285       .  A
O1040     Ni1056   2.016       .  S
O1040      C1046   1.313       .  A
O1041      C1046   1.282       .  A
C1042      N1218   1.434       .  S
O1043      C1045   1.262       .  A
O1044     Ni1055   2.010       .  S
C1045      O1051   1.308       .  A
C1046      C1059   1.565       .  S
H1047      O1048   0.966       .  S
O1048     Ni1056   1.909       .  S
O1048     Ni1050   1.842       .  S
O1048     Ni1055   1.853       .  S
O1049     Ni1050   2.029       .  S
Ni1050     O1054   1.871       .  S
Ni1050     O1052   1.896       .  S
O1051     Ni1056   2.020       .  S
C1053      O1054   1.255       .  A
C1053      C1321   1.417       .  S
C1058      C1060   1.520       .  S
C1058      C1062   1.551       .  S
C1058      C1061   1.598       .  S
C1059      C1063   1.533       .  S
C1059      C1065   1.523       .  S
C1059      C1064   1.563       .  S
C1060      C1068   1.382       .  A
C1060      C1735   1.383       .  A
C1061      C1072   1.410       .  A
C1061      C1736   1.466       .  A
C1062      C1076   1.405       .  A
C1062      C1737   1.385       .  A
C1063      C1066   1.394       .  A
C1064      C1070   1.380       .  A
C1065      C1073   1.381       .  A
C1066      H1079   1.079       .  S
N1067      C1738   1.357       .  A
N1067      C1068   1.349       .  A
C1068      H1069   1.081       .  S
C1070      H1080   1.083       .  S
N1071      C1742   1.348       .  A
N1071      C1072   1.367       .  A
N1071      N1094   1.419       .  S
C1072      H1078   1.081       .  S
C1073      H1075   1.082       .  S
N1074      C1745   1.354       .  A
N1074      C1076   1.349       .  A
N1074      C1186   1.445       .  S
C1076      H1077   1.081       .  S
C1081      C1083   1.536       .  S
C1081      C1757   1.542       .  S
C1081      C1084   1.520       .  S
C1081      N1139   1.501       .  S
C1082      C1086   1.583       .  S
C1082      C1760   1.536       .  S
C1082      C1087   1.602       .  S
C1082      C2005   1.550       .  S
C1083      C1091   1.328       .  A
C1083      C1086   1.409       .  A
C1084      C1095   1.385   1_455  A
C1084      C1087   1.424       .  A
C1085      C1099   1.376       .  A
C1085      C1088   1.358       .  A
C1086      C1089   1.430       .  A
C1087      C1093   1.414   1_455  A
C1088      C1096   1.394       .  A
C1089      N1090   1.365       .  A
C1089      H1102   1.078       .  S
N1090      C1091   1.314       .  A
N1090      C1107   1.428       .  S
C1091      H1092   1.067       .  S
C1093      N1094   1.360       .  A
C1093      H1103   1.078       .  S
N1094      C1095   1.347       .  A
C1095      H1101   1.083       .  S
C1096      N1097   1.367       .  A
C1096      H1098   1.082       .  S
N1097      C1099   1.343       .  A
N1097      C1117   1.432       .  S
C1099      H1100   1.073       .  S
O1104     Ni1110   1.890       .  S
O1104      C1125   1.277       .  A
O1105     Ni1128   1.914       .  S
O1105      C1114   1.293       .  A
O1106     Ni1110   1.797       .  S
O1106     Ni1128   1.837       .  S
O1106     Ni1122   1.880       .  S
O1106      H1129   0.967       .  S
C1107      O1124   1.251       .  A
C1107      O1116   1.299       .  A
O1108     Ni1127   1.915       .  S
O1108      C1114   1.283       .  A
O1109     Ni1127   1.935       .  S
O1109      C1111   1.255       .  A
Ni1110     O1113   1.878       .  S
Ni1110     O1115   1.869       .  S
C1111      C1130   1.596       .  S
C1111      O1121   1.285       .  A
O1112     Ni1128   2.031       .  S
O1112      C1118   1.316       .  A
O1113      C1118   1.274       .  A
C1114      N1290   1.423       .  S
O1115      C1117   1.266       .  A
O1116     Ni1127   2.013       .  S
C1117      O1123   1.301       .  A
C1118      C1131   1.558       .  S
H1119      O1120   0.967       .  S
O1120     Ni1128   1.909       .  S
O1120     Ni1122   1.852       .  S
O1120     Ni1127   1.842       .  S
O1121     Ni1122   2.037       .  S
Ni1122     O1126   1.876       .  S
Ni1122     O1124   1.883       .  S
O1123     Ni1128   2.000       .  S
C1125      O1126   1.259       .  A
C1125      C1324   1.419       .  S
C1130      C1132   1.517       .  S
C1130      C1134   1.560       .  S
C1130      C1133   1.599       .  S
C1131      C1135   1.543       .  S
C1131      C1137   1.523       .  S
C1131      C1136   1.563       .  S
C1132      C1140   1.379       .  A
C1132      C1807   1.386       .  A
C1133      C1144   1.415       .  A
C1133      C1808   1.460       .  A
C1134      C1148   1.408       .  A
C1134      C1809   1.378       .  A
C1135      C1138   1.398       .  A
C1136      C1142   1.383       .  A
C1137      C1145   1.381       .  A
C1138      H1151   1.075       .  S
N1139      C1810   1.358       .  A
N1139      C1140   1.347       .  A
C1140      H1141   1.081       .  S
C1142      H1152   1.082       .  S
N1143      C1814   1.348       .  A
N1143      C1144   1.370       .  A
C1144      H1150   1.082       .  S
C1145      H1147   1.082       .  S
N1146      C1817   1.358       .  A
N1146      C1148   1.350       .  A
N1146      C1258   1.445       .  S
C1148      H1149   1.079       .  S
C1153      C1155   1.550       .  S
C1153      C1157   1.542       .  S
C1153      C1156   1.527       .  S
C1153      N1211   1.497       .  S
C1154      C1158   1.587       .  S
C1154      C1160   1.533       .  S
C1154      C1159   1.587       .  S
C1154      C1312   1.555       .  S
C1155      C1163   1.340       .  A
C1155      C1158   1.419       .  A
C1156      C1167   1.383       .  A
C1156      C1159   1.420       .  A
C1157      C1171   1.366       .  A
C1157      C1160   1.359       .  A
C1158      C1161   1.433       .  A
C1159      C1165   1.409       .  A
C1160      C1168   1.392       .  A
C1161      N1162   1.366       .  A
C1161      H1174   1.077       .  S
N1162      C1163   1.318       .  A
N1162      C1179   1.437       .  S
C1163      H1164   1.069       .  S
C1165      N1166   1.352       .  A
C1165      H1175   1.078       .  S
N1166      C1167   1.347       .  A
N1166      N1287   1.415       .  S
C1167      H1173   1.079       .  S
C1168      N1169   1.369       .  A
C1168      H1170   1.082       .  S
N1169      C1171   1.342       .  A
N1169      C1189   1.431       .  S
C1171      H1172   1.071       .  S
O1176     Ni1182   1.890       .  S
O1176      C1197   1.268       .  A
O1177     Ni1200   1.940       .  S
O1177      C1186   1.298       .  A
O1178     Ni1182   1.815       .  S
O1178     Ni1200   1.834       .  S
O1178     Ni1866   1.863       .  S
O1178      H1201   0.967       .  S
C1179      O1196   1.251       .  A
C1179      O1188   1.295       .  A
O1180     Ni1199   1.932       .  S
O1181     Ni1199   1.916       .  S
O1181      C1183   1.263       .  A
Ni1182     O1185   1.860       .  S
Ni1182     O1187   1.875       .  S
C1183      C1202   1.586       .  S
C1183      O1193   1.291       .  A
O1184     Ni1200   2.033       .  S
O1184      C1190   1.322       .  A
O1185      C1190   1.267       .  A
C1186      O1852   1.287       .  A
O1187      C1189   1.273       .  A
O1188     Ni1199   2.015       .  S
C1189      O1195   1.301       .  A
C1190      C1203   1.551       .  S
H1191      O1192   0.966       .  S
O1192     Ni1194   1.868       .  S
O1192     Ni1199   1.854       .  S
O1193     Ni1194   2.023       .  S
Ni1194     O1198   1.895       .  S
Ni1194     O1196   1.883       .  S
O1195     Ni1200   1.990       .  S
C1197      O1870   1.269       .  A
C1197      C1297   1.444       .  S
Ni1200     O1864   1.926       .  S
C1202      C1204   1.515       .  S
C1202      C1206   1.552       .  S
C1202      C1205   1.588       .  S
C1203      C1207   1.541       .  S
C1203      C1209   1.508       .  S
C1203      C1208   1.558       .  S
C1204      C1212   1.363       .  A
C1204      C1207   1.380       .  A
C1205      C1216   1.403       .  A
C1205      C1208   1.455       .  A
C1206      C1220   1.405       .  A
C1206      C1209   1.385       .  A
C1207      C1210   1.401       .  A
C1208      C1214   1.377       .  A
C1209      C1217   1.363       .  A
C1210      N1211   1.362       .  A
C1210      H1223   1.075       .  S
N1211      C1212   1.346       .  A
C1212      H1213   1.068       .  S
C1214      N1215   1.348       .  A
C1214      H1224   1.083       .  S
N1215      C1216   1.367       .  A
N1215      N1238   1.417       .  S
C1216      H1222   1.079       .  S
C1217      N1218   1.347       .  A
C1217      H1219   1.082       .  S
N1218      C1220   1.351       .  A
C1220      H1221   1.081       .  S
C1225      C1227   1.608       .  S
C1225      C1229   1.537       .  S
C1225      C1228   1.594       .  S
C1226      C1230   1.544       .  S
C1226      C1232   1.557       .  S
C1226      C1231   1.505       .  S
C1226      N1283   1.481       .  S
C1227      C1235   1.447       .  A
C1227      C1230   1.415       .  A
C1228      C1239   1.411       .  A
C1228      C1231   1.386       .  A
C1229      C1243   1.396       .  A
C1229      C1232   1.363       .  A
C1230      C1233   1.349       .  A
C1231      C1237   1.373       .  A
C1232      C1240   1.365       .  A
C1233      N1234   1.327       .  A
C1233      H1246   1.062       .  S
N1234      C1235   1.375       .  A
N1234      C1261   1.465       .  S
C1235      H1236   1.078       .  S
C1237      N1238   1.350       .  A
C1237      H1247   1.080       .  S
N1238      C1239   1.368       .  A
C1239      H1245   1.078       .  S
C1240      N1241   1.337       .  A
C1240      H1242   1.069       .  S
N1241      C1243   1.371       .  A
N1241      C1251   1.437       .  S
C1243      H1244   1.082       .  S
O1248     Ni1254   1.902       .  S
O1248      C1269   1.271       .  A
O1249     Ni1272   1.956       .  S
O1249      C1258   1.295       .  A
O1250     Ni1254   1.961       .  S
O1250     Ni1272   1.993       .  S
O1250     Ni1938   1.949       .  S
O1250      H1273   0.973       .  S
C1251      O1268   1.273       .  A
C1251      O1260   1.296       .  A
O1252     Ni1271   1.910       .  S
O1253     Ni1271   1.948       .  S
O1253      C1255   1.260       .  A
Ni1254     O1257   1.947       .  S
Ni1254     O1259   1.856       .  S
C1255      C1274   1.551       .  S
C1255      O1265   1.263       .  A
O1256     Ni1272   1.966       .  S
O1256      C1262   1.295       .  A
O1257      C1262   1.274       .  A
C1258      O1924   1.272       .  A
O1259      C1261   1.262       .  A
O1260     Ni1271   1.974       .  S
C1261      O1267   1.257       .  A
C1262      C1275   1.550       .  S
H1263      O1264   0.967       .  S
O1264     Ni1266   1.880       .  S
O1264     Ni1271   1.863       .  S
O1265     Ni1266   1.943       .  S
Ni1266     O1270   1.873       .  S
Ni1266     O1268   1.904       .  S
O1267     Ni1272   2.036       .  S
C1269      O1942   1.251       .  A
C1269      C1300   1.448       .  S
Ni1272     O1936   1.893       .  S
C1274      C1276   1.530       .  S
C1274      C1278   1.533       .  S
C1274      C1277   1.576       .  S
C1275      C1279   1.508       .  S
C1275      C1281   1.512       .  S
C1275      C1280   1.569       .  S
C1276      C1284   1.382       .  A
C1276      C1279   1.371       .  A
C1277      C1288   1.398       .  A
C1277      C1280   1.465       .  A
C1278      C1292   1.395       .  A
C1278      C1281   1.376       .  A
C1279      C1282   1.362       .  A
C1280      C1286   1.386       .  A
C1281      C1289   1.367       .  A
C1282      N1283   1.345       .  A
C1282      H1295   1.076       .  S
N1283      C1284   1.360       .  A
C1284      H1285   1.075       .  S
C1286      N1287   1.351       .  A
C1286      H1296   1.083       .  S
N1287      C1288   1.358       .  A
C1288      H1294   1.083       .  S
C1289      N1290   1.349       .  A
C1289      H1291   1.083       .  S
N1290      C1292   1.341       .  A
C1292      H1293   1.079       .  S
C1297      C1298   1.392       .  A
C1297      C1302   1.417       .  A
C1298      C1299   1.387       .  A
C1298      H1303   1.082       .  S
C1299      C1300   1.404       .  A
C1299      O1304   1.364       .  S
C1300      C1301   1.397       .  A
C1301      C1302   1.397       .  A
C1301      H1305   1.083       .  S
C1302      O1306   1.372       .  S
O1304      H1308   0.990       .  S
O1306      H1307   0.992       .  S
C1309      C1310   1.407       .  A
C1309      C1314   1.410       .  A
C1310      C1311   1.409       .  A
C1310      H1315   1.074       .  S
C1311      C1312   1.416       .  A
C1311      O1316   1.374       .  S
C1312      C1313   1.411       .  A
C1313      C1314   1.406       .  A
C1313      H1317   1.068       .  S
O1316      H1320   0.992       .  S
C1321      C1322   1.397       .  A
C1321      C1326   1.394   1_655  A
C1322      C1323   1.380   1_655  A
C1322      H1327   1.084       .  S
C1323      C1324   1.397       .  A
C1323      O1328   1.372       .  S
C1324      C1325   1.400       .  A
C1325      C1326   1.377       .  A
C1325      H1329   1.085       .  S
C1326      O1330   1.372       .  S
O1328      H1332   0.991       .  S
O1330      H1331   0.991       .  S
C1333      C1338   1.418       .  A
C1334      C2005   1.403   1_655  A
C1334      C1335   1.407       .  A
C1334      H1339   1.070       .  S
C1335      C1672   1.420   1_655  A
C1337      C1338   1.405       .  A
C1337      H1341   1.069       .  S
C1338      O1342   1.372       .  S
O1342      H1343   0.992       .  S
C1345      C1347   1.552       .  S
C1345      C1348   1.612   1_655  S
C1345      C1672   1.551   1_655  S
C1346      C1352   1.530       .  S
C1346      C1351   1.516   1_665  S
C1346      N1403   1.502       .  S
C1347      C1355   1.402       .  A
C1347      C1350   1.366       .  A
C1349      C1363   1.432       .  A
C1349      C1352   1.403       .  A
C1350      C1353   1.382       .  A
C1351      C1357   1.386   1_545  A
C1352      C1360   1.321       .  A
C1353      N1354   1.339       .  A
C1353      H1366   1.072       .  S
N1354      C1355   1.369       .  A
N1354      C1381   1.436       .  S
C1355      H1356   1.082       .  S
C1357      N1358   1.347       .  A
C1357      H1367   1.083       .  S
N1358      C1359   1.365       .  A
N1358      N1479   1.424       .  S
C1359      H1365   1.078       .  S
C1360      N1361   1.313       .  A
C1360      H1362   1.055       .  S
N1361      C1363   1.369       .  A
N1361      C1371   1.433       .  S
C1363      H1364   1.078       .  S
O1368     Ni1374   1.906       .  S
O1368      C1389   1.284       .  A
O1369     Ni1392   1.928       .  S
O1369      C1378   1.295       .  A
O1370     Ni1374   1.799       .  S
O1370     Ni1392   1.839       .  S
O1370     Ni1386   1.884       .  S
O1370      H1393   0.967       .  S
C1371      O1388   1.250       .  A
C1371      O1380   1.296       .  A
O1372     Ni1391   1.917       .  S
O1372      C1378   1.287       .  A
O1373     Ni1391   1.939       .  S
O1373      C1375   1.265       .  A
Ni1374     O1377   1.893       .  S
Ni1374     O1379   1.866       .  S
C1375      C1394   1.602       .  S
C1375      O1385   1.285       .  A
O1376     Ni1392   2.016       .  S
O1376      C1382   1.313       .  A
O1377      C1382   1.282       .  A
C1378      N1554   1.434       .  S
O1379      C1381   1.262       .  A
O1380     Ni1391   2.010       .  S
C1381      O1387   1.308       .  A
C1382      C1395   1.565       .  S
H1383      O1384   0.966       .  S
O1384     Ni1392   1.909       .  S
O1384     Ni1386   1.842       .  S
O1384     Ni1391   1.853       .  S
O1385     Ni1386   2.029       .  S
Ni1386     O1390   1.871       .  S
Ni1386     O1388   1.896       .  S
O1387     Ni1392   2.020       .  S
C1389      O1390   1.255       .  A
C1389      C1657   1.417       .  S
C1394      C1396   1.520       .  S
C1394      C1398   1.551       .  S
C1394      C1397   1.598       .  S
C1395      C1399   1.533       .  S
C1395      C1401   1.523       .  S
C1395      C1400   1.563       .  S
C1396      C1404   1.382       .  A
C1397      C1408   1.410       .  A
C1398      C1412   1.405       .  A
C1399      C1402   1.394       .  A
C1400      C1406   1.380       .  A
C1401      C1409   1.381       .  A
C1402      H1415   1.079       .  S
N1403      C1404   1.349       .  A
C1404      H1405   1.081       .  S
C1406      H1416   1.083       .  S
N1407      C1408   1.367       .  A
N1407      N1430   1.419       .  S
C1408      H1414   1.081       .  S
C1409      H1411   1.082       .  S
N1410      C1412   1.349       .  A
N1410      C1522   1.445       .  S
C1412      H1413   1.081       .  S
C1417      C1419   1.536       .  S
C1417      C1420   1.520   1_565  S
C1417      N1475   1.501       .  S
C1418      C1422   1.583   1_545  S
C1418      C1423   1.602       .  S
C1419      C1427   1.328       .  A
C1419      C1422   1.409       .  A
C1420      C1431   1.385   1_445  A
C1420      C1423   1.424       .  A
C1421      C1435   1.376       .  A
C1421      C1424   1.358       .  A
C1422      C1425   1.430       .  A
C1423      C1429   1.414   1_445  A
C1424      C1432   1.394       .  A
C1425      N1426   1.365       .  A
C1425      H1438   1.078       .  S
N1426      C1427   1.314       .  A
N1426      C1443   1.428       .  S
C1427      H1428   1.067       .  S
C1429      N1430   1.360       .  A
C1429      H1439   1.078       .  S
N1430      C1431   1.347       .  A
C1431      H1437   1.083       .  S
C1432      N1433   1.367       .  A
C1432      H1434   1.082       .  S
N1433      C1435   1.343       .  A
N1433      C1453   1.432       .  S
C1435      H1436   1.073       .  S
O1440     Ni1446   1.890       .  S
O1440      C1461   1.277       .  A
O1441     Ni1464   1.914       .  S
O1441      C1450   1.293       .  A
O1442     Ni1446   1.797       .  S
O1442     Ni1464   1.837       .  S
O1442     Ni1458   1.880       .  S
O1442      H1465   0.967       .  S
C1443      O1460   1.251       .  A
C1443      O1452   1.299       .  A
O1444     Ni1463   1.915       .  S
O1444      C1450   1.283       .  A
O1445     Ni1463   1.935       .  S
O1445      C1447   1.255       .  A
Ni1446     O1449   1.878       .  S
Ni1446     O1451   1.869       .  S
C1447      C1466   1.596       .  S
C1447      O1457   1.285       .  A
O1448     Ni1464   2.031       .  S
O1448      C1454   1.316       .  A
O1449      C1454   1.275       .  A
C1450      N1626   1.423       .  S
O1451      C1453   1.266       .  A
O1452     Ni1463   2.013       .  S
C1453      O1459   1.301       .  A
C1454      C1467   1.559       .  S
H1455      O1456   0.967       .  S
O1456     Ni1464   1.909       .  S
O1456     Ni1458   1.852       .  S
O1456     Ni1463   1.842       .  S
O1457     Ni1458   2.037       .  S
Ni1458     O1462   1.876       .  S
Ni1458     O1460   1.883       .  S
O1459     Ni1464   2.001       .  S
C1461      O1462   1.259       .  A
C1461      C1660   1.419       .  S
C1466      C1468   1.517       .  S
C1466      C1470   1.560       .  S
C1466      C1469   1.599       .  S
C1467      C1471   1.543       .  S
C1467      C1473   1.523       .  S
C1467      C1472   1.563       .  S
C1468      C1476   1.379       .  A
C1469      C1480   1.415       .  A
C1470      C1484   1.408       .  A
C1471      C1474   1.398       .  A
C1472      C1478   1.383       .  A
C1473      C1481   1.381       .  A
C1474      H1487   1.075       .  S
N1475      C1476   1.347       .  A
C1476      H1477   1.081       .  S
C1478      H1488   1.082       .  S
N1479      C1480   1.370       .  A
C1480      H1486   1.082       .  S
C1481      H1483   1.082       .  S
N1482      C1484   1.350       .  A
N1482      C1594   1.445       .  S
C1484      H1485   1.079       .  S
C1489      C1491   1.550       .  S
C1489      C1493   1.542       .  S
C1489      C1492   1.527       .  S
C1489      N1547   1.497       .  S
C1490      C1494   1.587       .  S
C1490      C1496   1.533       .  S
C1490      C1495   1.587       .  S
C1490      C1648   1.555       .  S
C1491      C1499   1.340       .  A
C1491      C1494   1.419       .  A
C1492      C1503   1.383       .  A
C1492      C1495   1.420       .  A
C1493      C1507   1.366       .  A
C1493      C1496   1.359       .  A
C1494      C1497   1.433       .  A
C1495      C1501   1.409       .  A
C1496      C1504   1.392       .  A
C1497      N1498   1.366       .  A
C1497      H1510   1.077       .  S
N1498      C1499   1.318       .  A
N1498      C1515   1.437       .  S
C1499      H1500   1.069       .  S
C1501      N1502   1.352       .  A
C1501      H1511   1.078       .  S
N1502      C1503   1.347       .  A
N1502      N1623   1.415       .  S
C1503      H1509   1.079       .  S
C1504      N1505   1.369       .  A
C1504      H1506   1.082       .  S
N1505      C1507   1.342       .  A
N1505      C1525   1.431       .  S
C1507      H1508   1.071       .  S
O1512     Ni1518   1.890       .  S
O1512      C1533   1.268       .  A
O1513     Ni1536   1.940       .  S
O1513      C1522   1.298       .  A
O1514     Ni1518   1.815       .  S
O1514     Ni1536   1.834       .  S
O1514      H1537   0.967       .  S
C1515      O1532   1.251       .  A
C1515      O1524   1.295       .  A
O1516     Ni1535   1.932       .  S
O1517     Ni1535   1.916       .  S
O1517      C1519   1.263       .  A
Ni1518     O1521   1.860       .  S
Ni1518     O1523   1.875       .  S
C1519      C1538   1.586       .  S
C1519      O1529   1.291       .  A
O1520     Ni1536   2.033       .  S
O1520      C1526   1.322       .  A
O1521      C1526   1.267       .  A
O1523      C1525   1.273       .  A
O1524     Ni1535   2.015       .  S
C1525      O1531   1.301       .  A
C1526      C1539   1.551       .  S
H1527      O1528   0.966       .  S
O1528     Ni1530   1.868       .  S
O1528     Ni1535   1.854       .  S
O1529     Ni1530   2.023       .  S
Ni1530     O1534   1.895       .  S
Ni1530     O1532   1.883       .  S
O1531     Ni1536   1.990       .  S
C1533      C1633   1.444   1_565  S
C1538      C1540   1.515       .  S
C1538      C1542   1.552       .  S
C1538      C1541   1.588       .  S
C1539      C1543   1.541       .  S
C1539      C1545   1.508       .  S
C1539      C1544   1.558       .  S
C1540      C1548   1.363       .  A
C1540      C1543   1.380       .  A
C1541      C1552   1.403       .  A
C1541      C1544   1.455       .  A
C1542      C1556   1.405       .  A
C1542      C1545   1.385       .  A
C1543      C1546   1.401       .  A
C1544      C1550   1.377       .  A
C1545      C1553   1.363       .  A
C1546      N1547   1.362       .  A
C1546      H1559   1.075       .  S
N1547      C1548   1.346       .  A
C1548      H1549   1.068       .  S
C1550      N1551   1.348       .  A
C1550      H1560   1.083       .  S
N1551      C1552   1.367       .  A
N1551      N1574   1.417       .  S
C1552      H1558   1.079       .  S
C1553      N1554   1.347       .  A
C1553      H1555   1.082       .  S
N1554      C1556   1.351       .  A
C1556      H1557   1.081       .  S
C1561      C1563   1.608       .  S
C1561      C1565   1.537       .  S
C1561      C1564   1.594       .  S
C1561      C1981   1.544       .  S
C1562      C1566   1.544       .  S
C1562      C1568   1.557       .  S
C1562      C1567   1.505       .  S
C1562      N1619   1.481       .  S
C1563      C1571   1.447       .  A
C1563      C1566   1.415       .  A
C1564      C1575   1.411       .  A
C1564      C1567   1.386       .  A
C1565      C1579   1.396       .  A
C1565      C1568   1.363       .  A
C1566      C1569   1.349       .  A
C1567      C1573   1.373       .  A
C1568      C1576   1.365       .  A
C1569      N1570   1.327       .  A
C1569      H1582   1.062       .  S
N1570      C1571   1.375       .  A
N1570      C1597   1.465       .  S
C1571      H1572   1.078       .  S
C1573      N1574   1.350       .  A
C1573      H1583   1.080       .  S
N1574      C1575   1.368       .  A
C1575      H1581   1.078       .  S
C1576      N1577   1.337       .  A
C1576      H1578   1.069       .  S
N1577      C1579   1.371       .  A
N1577      C1587   1.437       .  S
C1579      H1580   1.082       .  S
O1584     Ni1590   1.902       .  S
O1584      C1605   1.271   1_565  A
O1585     Ni1608   1.956       .  S
O1585      C1594   1.295       .  A
O1586     Ni1590   1.961       .  S
O1586     Ni1608   1.993       .  S
O1586      H1609   0.976   1_565  S
C1587      O1604   1.273       .  A
C1587      O1596   1.296       .  A
O1588     Ni1607   1.910       .  S
O1589     Ni1607   1.948       .  S
O1589      C1591   1.260       .  A
Ni1590     O1593   1.947       .  S
Ni1590     O1595   1.856       .  S
C1591      C1610   1.551       .  S
C1591      O1601   1.263       .  A
O1592     Ni1608   1.966       .  S
O1592      C1598   1.295       .  A
O1593      C1598   1.274       .  A
O1595      C1597   1.262       .  A
O1596     Ni1607   1.974       .  S
C1597      O1603   1.257       .  A
C1598      C1611   1.550       .  S
H1599      O1600   0.967       .  S
O1600     Ni1602   1.880       .  S
O1600     Ni1607   1.863       .  S
O1601     Ni1602   1.943       .  S
Ni1602     O1606   1.873       .  S
Ni1602     O1604   1.904       .  S
O1603     Ni1608   2.036       .  S
C1605      C1636   1.448       .  S
C1610      C1612   1.530       .  S
C1610      C1614   1.533       .  S
C1610      C1613   1.576       .  S
C1611      C1615   1.508       .  S
C1611      C1617   1.512       .  S
C1611      C1616   1.569       .  S
C1612      C1620   1.382       .  A
C1612      C1615   1.371       .  A
C1613      C1624   1.398       .  A
C1613      C1616   1.465       .  A
C1614      C1628   1.395       .  A
C1614      C1617   1.376       .  A
C1615      C1618   1.362       .  A
C1616      C1622   1.386       .  A
C1617      C1625   1.367       .  A
C1618      N1619   1.345       .  A
C1618      H1631   1.076       .  S
N1619      C1620   1.360       .  A
C1620      H1621   1.075       .  S
C1622      N1623   1.351       .  A
C1622      H1632   1.083       .  S
N1623      C1624   1.358       .  A
C1624      H1630   1.083       .  S
C1625      N1626   1.349       .  A
C1625      H1627   1.083       .  S
N1626      C1628   1.341       .  A
C1628      H1629   1.079       .  S
C1633      C1634   1.392       .  A
C1633      C1638   1.417   1_545  A
C1634      C1635   1.387       .  A
C1634      H1639   1.082       .  S
C1635      C1636   1.404       .  A
C1635      O1640   1.364       .  S
C1636      C1637   1.397       .  A
C1637      C1638   1.397   1_545  A
C1637      H1641   1.083       .  S
C1638      O1642   1.372       .  S
O1640      H1644   0.990       .  S
O1642      H1643   0.992       .  S
C1645      C1897   1.544       .  S
C1645      C1646   1.407       .  A
C1645      C1650   1.410   1_556  A
C1646      C1647   1.409   1_556  A
C1646      H1651   1.074       .  S
C1647      C1648   1.416       .  A
C1647      O1652   1.374       .  S
C1648      C1649   1.411       .  A
C1649      C1650   1.406       .  A
C1649      H1653   1.068       .  S
C1650      O1990   1.372   1_554  S
O1652      H1656   0.992       .  S
O1654      C1986   1.372       .  S
O1654      H1991   0.992       .  S
H1655      O1990   0.992       .  S
C1657      C1658   1.397       .  A
C1657      C1662   1.394   1_655  A
C1658      C1659   1.380   1_655  A
C1658      H1663   1.084       .  S
C1659      C1660   1.397       .  A
C1659      O1664   1.372       .  S
C1660      C1661   1.400       .  A
C1661      C1662   1.377       .  A
C1661      H1665   1.085       .  S
C1662      O1666   1.372       .  S
O1664      H1668   0.991       .  S
O1666      H1667   0.991       .  S
C1669      C1674   1.418       .  A
C1670      C1671   1.407       .  A
C1670      H1675   1.070       .  S
C1671      O2012   1.374       .  S
C1672      C2009   1.404       .  A
C1673      C2008   1.404   1_554  A
C1673      C1674   1.405       .  A
C1673      H1677   1.069   1_554  S
C1674      O1678   1.372       .  S
O1676      C2007   1.374       .  S
O1676      H2016   0.992   1_545  S
O1678      H1679   0.992       .  S
H1680      O2012   0.992   1_565  S
C1681      C1683   1.552       .  S
C1681      C1684   1.612   1_655  S
C1681      C2008   1.551   1_655  S
C1682      C1688   1.530       .  S
C1682      C1687   1.516   1_665  S
C1682      N1739   1.502       .  S
C1683      C1691   1.402       .  A
C1683      C1686   1.366       .  A
C1685      C1699   1.433       .  A
C1685      C1688   1.402       .  A
C1686      C1689   1.382       .  A
C1687      C1693   1.386   1_545  A
C1688      C1696   1.321       .  A
C1689      N1690   1.339       .  A
C1689      H1702   1.072       .  S
N1690      C1691   1.369       .  A
N1690      C1717   1.436       .  S
C1691      H1692   1.082       .  S
C1693      N1694   1.347       .  A
C1693      H1703   1.083       .  S
N1694      C1695   1.365       .  A
N1694      N1815   1.424       .  S
C1695      H1701   1.078       .  S
C1696      N1697   1.313       .  A
C1696      H1698   1.055       .  S
N1697      C1699   1.369       .  A
N1697      C1707   1.433       .  S
C1699      H1700   1.078       .  S
O1704     Ni1710   1.906       .  S
O1704      C1725   1.284       .  A
O1705     Ni1728   1.928       .  S
O1705      C1714   1.295       .  A
O1706     Ni1710   1.799       .  S
O1706     Ni1728   1.839       .  S
O1706     Ni1722   1.884       .  S
O1706      H1729   0.967       .  S
C1707      O1724   1.250       .  A
C1707      O1716   1.296       .  A
O1708     Ni1727   1.917       .  S
O1708      C1714   1.287       .  A
O1709     Ni1727   1.939       .  S
O1709      C1711   1.265       .  A
Ni1710     O1713   1.893       .  S
Ni1710     O1715   1.866       .  S
C1711      C1730   1.602       .  S
C1711      O1721   1.285       .  A
O1712     Ni1728   2.016       .  S
O1712      C1718   1.313       .  A
O1713      C1718   1.282       .  A
C1714      N1890   1.434       .  S
O1715      C1717   1.262       .  A
O1716     Ni1727   2.010       .  S
C1717      O1723   1.308       .  A
C1718      C1731   1.565       .  S
H1719      O1720   0.966       .  S
O1720     Ni1728   1.909       .  S
O1720     Ni1722   1.842       .  S
O1720     Ni1727   1.853       .  S
O1721     Ni1722   2.029       .  S
Ni1722     O1726   1.871       .  S
Ni1722     O1724   1.896       .  S
O1723     Ni1728   2.020       .  S
C1725      O1726   1.255       .  A
C1725      C1993   1.418       .  S
C1730      C1732   1.520       .  S
C1730      C1734   1.551       .  S
C1730      C1733   1.598       .  S
C1731      C1735   1.533       .  S
C1731      C1737   1.523       .  S
C1731      C1736   1.563       .  S
C1732      C1740   1.382       .  A
C1733      C1744   1.410       .  A
C1734      C1748   1.405       .  A
C1735      C1738   1.394       .  A
C1736      C1742   1.380       .  A
C1737      C1745   1.381       .  A
C1738      H1751   1.079       .  S
N1739      C1740   1.349       .  A
C1740      H1741   1.081       .  S
C1742      H1752   1.083       .  S
N1743      C1744   1.367       .  A
N1743      N1766   1.419       .  S
C1744      H1750   1.081       .  S
C1745      H1747   1.082       .  S
N1746      C1748   1.349       .  A
N1746      C1858   1.445       .  S
C1748      H1749   1.081       .  S
C1753      C1755   1.536       .  S
C1753      C1756   1.520   1_565  S
C1753      N1811   1.501       .  S
C1754      C1758   1.583   1_545  S
C1754      C1759   1.602       .  S
C1755      C1763   1.328       .  A
C1755      C1758   1.409       .  A
C1756      C1767   1.385   1_445  A
C1756      C1759   1.424       .  A
C1757      C1771   1.376       .  A
C1757      C1760   1.358       .  A
C1758      C1761   1.430       .  A
C1759      C1765   1.414   1_445  A
C1760      C1768   1.394       .  A
C1761      N1762   1.365       .  A
C1761      H1774   1.078       .  S
N1762      C1763   1.314       .  A
N1762      C1779   1.428       .  S
C1763      H1764   1.067       .  S
C1765      N1766   1.360       .  A
C1765      H1775   1.078       .  S
N1766      C1767   1.347       .  A
C1767      H1773   1.083       .  S
C1768      N1769   1.367       .  A
C1768      H1770   1.082       .  S
N1769      C1771   1.343       .  A
N1769      C1789   1.432       .  S
C1771      H1772   1.073       .  S
O1776     Ni1782   1.890       .  S
O1776      C1797   1.277       .  A
O1777     Ni1800   1.914       .  S
O1777      C1786   1.293       .  A
O1778     Ni1782   1.797       .  S
O1778     Ni1800   1.837       .  S
O1778     Ni1794   1.880       .  S
O1778      H1801   0.967       .  S
C1779      O1796   1.251       .  A
C1779      O1788   1.299       .  A
O1780     Ni1799   1.915       .  S
O1780      C1786   1.283       .  A
O1781     Ni1799   1.935       .  S
O1781      C1783   1.255       .  A
Ni1782     O1785   1.878       .  S
Ni1782     O1787   1.869       .  S
C1783      C1802   1.596       .  S
C1783      O1793   1.285       .  A
O1784     Ni1800   2.031       .  S
O1784      C1790   1.316       .  A
O1785      C1790   1.275       .  A
C1786      N1962   1.423       .  S
O1787      C1789   1.266       .  A
O1788     Ni1799   2.013       .  S
C1789      O1795   1.301       .  A
C1790      C1803   1.559       .  S
H1791      O1792   0.967       .  S
O1792     Ni1800   1.909       .  S
O1792     Ni1794   1.852       .  S
O1792     Ni1799   1.842       .  S
O1793     Ni1794   2.037       .  S
Ni1794     O1798   1.876       .  S
Ni1794     O1796   1.883       .  S
O1795     Ni1800   2.000       .  S
C1797      O1798   1.259       .  A
C1797      C1996   1.419       .  S
C1802      C1804   1.517       .  S
C1802      C1806   1.560       .  S
C1802      C1805   1.599       .  S
C1803      C1807   1.543       .  S
C1803      C1809   1.523       .  S
C1803      C1808   1.563       .  S
C1804      C1812   1.379       .  A
C1805      C1816   1.415       .  A
C1806      C1820   1.408       .  A
C1807      C1810   1.398       .  A
C1808      C1814   1.383       .  A
C1809      C1817   1.381       .  A
C1810      H1823   1.075       .  S
N1811      C1812   1.347       .  A
C1812      H1813   1.081       .  S
C1814      H1824   1.082       .  S
N1815      C1816   1.370       .  A
C1816      H1822   1.082       .  S
C1817      H1819   1.082       .  S
N1818      C1820   1.350       .  A
N1818      C1930   1.445       .  S
C1820      H1821   1.079       .  S
C1825      C1827   1.550       .  S
C1825      C1829   1.542       .  S
C1825      C1828   1.527       .  S
C1825      N1883   1.497       .  S
C1826      C1830   1.587       .  S
C1826      C1832   1.533       .  S
C1826      C1831   1.587       .  S
C1826      C1984   1.555       .  S
C1827      C1835   1.340       .  A
C1827      C1830   1.419       .  A
C1828      C1839   1.383       .  A
C1828      C1831   1.420       .  A
C1829      C1843   1.366       .  A
C1829      C1832   1.359       .  A
C1830      C1833   1.433       .  A
C1831      C1837   1.409       .  A
C1832      C1840   1.392       .  A
C1833      N1834   1.366       .  A
C1833      H1846   1.077       .  S
N1834      C1835   1.318       .  A
N1834      C1851   1.437       .  S
C1835      H1836   1.069       .  S
C1837      N1838   1.352       .  A
C1837      H1847   1.078       .  S
N1838      C1839   1.347       .  A
N1838      N1959   1.415       .  S
C1839      H1845   1.079       .  S
C1840      N1841   1.369       .  A
C1840      H1842   1.082       .  S
N1841      C1843   1.342       .  A
N1841      C1861   1.431       .  S
C1843      H1844   1.071       .  S
O1848     Ni1854   1.890       .  S
O1848      C1869   1.268       .  A
O1849     Ni1872   1.940       .  S
O1849      C1858   1.298       .  A
O1850     Ni1854   1.815       .  S
O1850     Ni1872   1.834       .  S
O1850      H1873   0.967       .  S
C1851      O1868   1.251       .  A
C1851      O1860   1.295       .  A
O1852     Ni1871   1.932       .  S
O1853     Ni1871   1.916       .  S
O1853      C1855   1.263       .  A
Ni1854     O1857   1.860       .  S
Ni1854     O1859   1.875       .  S
C1855      C1874   1.586       .  S
C1855      O1865   1.291       .  A
O1856     Ni1872   2.033       .  S
O1856      C1862   1.322       .  A
O1857      C1862   1.267       .  A
O1859      C1861   1.273       .  A
O1860     Ni1871   2.015       .  S
C1861      O1867   1.301       .  A
C1862      C1875   1.551       .  S
H1863      O1864   0.966       .  S
O1864     Ni1866   1.868       .  S
O1864     Ni1871   1.854       .  S
O1865     Ni1866   2.023       .  S
Ni1866     O1870   1.895       .  S
Ni1866     O1868   1.883       .  S
O1867     Ni1872   1.990       .  S
C1869      C1969   1.444   1_565  S
C1874      C1876   1.515       .  S
C1874      C1878   1.552       .  S
C1874      C1877   1.588       .  S
C1875      C1879   1.541       .  S
C1875      C1881   1.508       .  S
C1875      C1880   1.558       .  S
C1876      C1884   1.363       .  A
C1876      C1879   1.380       .  A
C1877      C1888   1.403       .  A
C1877      C1880   1.455       .  A
C1878      C1892   1.405       .  A
C1878      C1881   1.385       .  A
C1879      C1882   1.401       .  A
C1880      C1886   1.377       .  A
C1881      C1889   1.363       .  A
C1882      N1883   1.362       .  A
C1882      H1895   1.075       .  S
N1883      C1884   1.346       .  A
C1884      H1885   1.068       .  S
C1886      N1887   1.348       .  A
C1886      H1896   1.083       .  S
N1887      C1888   1.367       .  A
N1887      N1910   1.417       .  S
C1888      H1894   1.079       .  S
C1889      N1890   1.347       .  A
C1889      H1891   1.082       .  S
N1890      C1892   1.351       .  A
C1892      H1893   1.081       .  S
C1897      C1899   1.608       .  S
C1897      C1901   1.537       .  S
C1897      C1900   1.594       .  S
C1898      C1902   1.544       .  S
C1898      C1904   1.557       .  S
C1898      C1903   1.505       .  S
C1898      N1955   1.481       .  S
C1899      C1907   1.447       .  A
C1899      C1902   1.415       .  A
C1900      C1911   1.411       .  A
C1900      C1903   1.386       .  A
C1901      C1915   1.396       .  A
C1901      C1904   1.363       .  A
C1902      C1905   1.349       .  A
C1903      C1909   1.373       .  A
C1904      C1912   1.365       .  A
C1905      N1906   1.327       .  A
C1905      H1918   1.062       .  S
N1906      C1907   1.375       .  A
N1906      C1933   1.465       .  S
C1907      H1908   1.078       .  S
C1909      N1910   1.350       .  A
C1909      H1919   1.080       .  S
N1910      C1911   1.368       .  A
C1911      H1917   1.078       .  S
C1912      N1913   1.337       .  A
C1912      H1914   1.069       .  S
N1913      C1915   1.371       .  A
N1913      C1923   1.437       .  S
C1915      H1916   1.082       .  S
O1920     Ni1926   1.902       .  S
O1920      C1941   1.271   1_565  A
O1921     Ni1944   1.956       .  S
O1921      C1930   1.295       .  A
O1922     Ni1926   1.961       .  S
O1922     Ni1944   1.993       .  S
O1922      H1945   0.974   1_565  S
C1923      O1940   1.273       .  A
C1923      O1932   1.296       .  A
O1924     Ni1943   1.910       .  S
O1925     Ni1943   1.948       .  S
O1925      C1927   1.260       .  A
Ni1926     O1929   1.947       .  S
Ni1926     O1931   1.856       .  S
C1927      C1946   1.551       .  S
C1927      O1937   1.263       .  A
O1928     Ni1944   1.966       .  S
O1928      C1934   1.295       .  A
O1929      C1934   1.274       .  A
O1931      C1933   1.262       .  A
O1932     Ni1943   1.974       .  S
C1933      O1939   1.257       .  A
C1934      C1947   1.550       .  S
H1935      O1936   0.967       .  S
O1936     Ni1938   1.880       .  S
O1936     Ni1943   1.863       .  S
O1937     Ni1938   1.943       .  S
Ni1938     O1942   1.873       .  S
Ni1938     O1940   1.904       .  S
O1939     Ni1944   2.036       .  S
C1941      C1972   1.448       .  S
C1946      C1948   1.530       .  S
C1946      C1950   1.533       .  S
C1946      C1949   1.576       .  S
C1947      C1951   1.508       .  S
C1947      C1953   1.512       .  S
C1947      C1952   1.569       .  S
C1948      C1956   1.382       .  A
C1948      C1951   1.371       .  A
C1949      C1960   1.398       .  A
C1949      C1952   1.465       .  A
C1950      C1964   1.395       .  A
C1950      C1953   1.376       .  A
C1951      C1954   1.362       .  A
C1952      C1958   1.386       .  A
C1953      C1961   1.367       .  A
C1954      N1955   1.345       .  A
C1954      H1967   1.076       .  S
N1955      C1956   1.360       .  A
C1956      H1957   1.075       .  S
C1958      N1959   1.351       .  A
C1958      H1968   1.083       .  S
N1959      C1960   1.358       .  A
C1960      H1966   1.083       .  S
C1961      N1962   1.349       .  A
C1961      H1963   1.083       .  S
N1962      C1964   1.341       .  A
C1964      H1965   1.079       .  S
C1969      C1970   1.392       .  A
C1969      C1974   1.417   1_545  A
C1970      C1971   1.387       .  A
C1970      H1975   1.082       .  S
C1971      C1972   1.404       .  A
C1971      O1976   1.364       .  S
C1972      C1973   1.397       .  A
C1973      C1974   1.397   1_545  A
C1973      H1977   1.083       .  S
C1974      O1978   1.372       .  S
O1976      H1980   0.990       .  S
O1978      H1979   0.992       .  S
C1981      C1982   1.407       .  A
C1981      C1986   1.410       .  A
C1982      C1983   1.409       .  A
C1982      H1987   1.074       .  S
C1983      C1984   1.416       .  A
C1983      O1988   1.374       .  S
C1984      C1985   1.411       .  A
C1985      C1986   1.406       .  A
C1985      H1989   1.068       .  S
O1988      H1992   0.992       .  S
C1993      C1994   1.397       .  A
C1993      C1998   1.394   1_655  A
C1994      C1995   1.380   1_655  A
C1994      H1999   1.084       .  S
C1995      C1996   1.397       .  A
C1995      O2000   1.372       .  S
C1996      C1997   1.400       .  A
C1997      C1998   1.377       .  A
C1997      H2001   1.085       .  S
C1998      O2002   1.372       .  S
O2000      H2004   0.991       .  S
O2002      H2003   0.991       .  S
C2005      C2010   1.418       .  A
C2006      C2007   1.407       .  A
C2006      H2011   1.070       .  S
C2009      C2010   1.405       .  A
C2009      H2013   1.069       .  S
C2010      O2014   1.372       .  S
O2014      H2015   0.992       .  S
