geometry optimzed in LAMMPS
_audit_creation_date              2020-12-01 
_audit_creation_method            'lammps2cif' 
_symmetry_space_group_name_H-M    'P1' 
_symmetry_Int_Tables_number       1 
_symmetry_cell_setting            triclinic 
loop_ 
_symmetry_equiv_pos_as_xyz 
  x,y,z 
_cell_length_a                    37.76653947 
_cell_length_b                    37.82587392560082 
_cell_length_c                    29.29289221304025 
_cell_angle_alpha                 89.98130438595726 
_cell_angle_beta                  90.23003632251186 
_cell_angle_gamma                 90.11688899577955 
loop_ 
_atom_site_label 
_atom_site_type_symbol 
_atom_site_fract_x 
_atom_site_fract_y 
_atom_site_fract_z 
_atom_site_charge 
N1          N  0.02948046  0.77607848  0.47915114    -0.02400
C2          C  0.04244472  0.74339575  0.46846236     0.00200
C3          C  0.07034222  0.73410905  0.99608218    -0.22700
C4          C  0.07456995  0.76136667  0.02617295    -0.22900
C5          C  0.04897093  0.78622954  0.01576070     0.00100
H6          H  0.08405804  0.70902154  0.99713569     0.13900
H7          H  0.09200533  0.76143557  0.05559252     0.13900
N8          N  0.99979837  0.24360648  0.02298997    -0.02400
C9          C  0.99777787  0.27970047  0.02551386     0.00200
C10         C  0.00085224  0.29601642  0.48140658    -0.22700
C11         C  0.00202069  0.26878343  0.45122374    -0.22900
C12         C  0.00225883  0.23806042  0.47657469     0.00100
H13         H  0.99902869  0.32379033  0.47277709     0.13900
H14         H  0.00149152  0.27101148  0.41437911     0.13900
N15         N  0.72568985  0.00502751  0.46504292    -0.02400
C16         C  0.75763320  0.02031899  0.45525873     0.00200
C17         C  0.76773858  0.04461780  0.98793314    -0.22700
C18         C  0.74149755  0.04440522  0.01973051    -0.22900
C19         C  0.71645303  0.02021220  0.00515154     0.00100
H20         H  0.79266808  0.05866505  0.99052406     0.13900
H21         H  0.74189945  0.05830807  0.05202638     0.13900
N22         N  0.26471926  0.02924323  0.01475311    -0.02400
C23         C  0.22952818  0.03681219  0.01790446     0.00200
C24         C  0.21531768  0.04587691  0.47384757    -0.22700
C25         C  0.24246145  0.04337387  0.44346658    -0.22900
C26         C  0.27205407  0.03344901  0.46807493     0.00100
H27         H  0.18779099  0.05061927  0.46547413     0.13900
H28         H  0.24047103  0.04650667  0.40681423     0.13900
N29         N  0.46091922  0.72353731  0.46557930    -0.02400
C30         C  0.44719249  0.75562050  0.45387863     0.00200
C31         C  0.42008405  0.76554591  0.98455681    -0.22700
C32         C  0.41720722  0.73856543  0.01544584    -0.22900
C33         C  0.44246842  0.71370489  0.00400840     0.00100
H34         H  0.40604419  0.79044667  0.98555207     0.13900
H35         H  0.40082560  0.73859465  0.04567931     0.13900
N36         N  0.50540452  0.26016142  0.01024730    -0.02400
C37         C  0.50189270  0.22426084  0.01235674     0.00200
C38         C  0.49920559  0.20928465  0.46986883    -0.22700
C39         C  0.50207392  0.23633415  0.43944742    -0.22900
C40         C  0.50590670  0.26695134  0.46463135     0.00100
H41         H  0.49755742  0.18143517  0.46157267     0.13900
H42         H  0.50217569  0.23395046  0.40262195     0.13900
N43         N  0.22801528  0.46291831  0.04634179    -0.02400
C44         C  0.26147084  0.44953088  0.04945777     0.00200
C45         C  0.26882468  0.42691241  0.51209616    -0.22700
C46         C  0.23973820  0.42789399  0.48431405    -0.22900
C47         C  0.21572691  0.45048443  0.50457455     0.00100
H48         H  0.29396512  0.41473921  0.50414888     0.13900
H49         H  0.23805911  0.41698885  0.45021535     0.13900
N50         N  0.76217802  0.53716802  0.49328971    -0.02400
C51         C  0.72686344  0.54387855  0.48947413     0.00200
C52         C  0.71358211  0.55440815  0.03168483    -0.22700
C53         C  0.74105271  0.55372407  0.06224792    -0.22900
C54         C  0.77051903  0.54276909  0.03849710     0.00100
H55         H  0.68604407  0.55905795  0.03978718     0.13900
H56         H  0.73925675  0.55827836  0.09863889     0.13900
O57         O  0.48596382  0.51132509  0.16537512    -0.87200
C58         C  0.45781438  0.55500061  0.28584508     0.88800
Mg59       Mg  0.47886462  0.45699942  0.14812557     1.58100
O60         O  0.54938497  0.54582639  0.27221686    -0.87000
O61         O  0.52924040  0.55045366  0.16836817    -0.74300
C62         C  0.53653317  0.37629845  0.33354125     0.93800
O63         O  0.42498582  0.48795616  0.23396320    -0.74100
O64         O  0.52479293  0.36853003  0.29398345    -0.81600
Mg65       Mg  0.44121097  0.53776531  0.19408254     1.58000
C66         C  0.61090503  0.50405769  0.37134373     0.93800
O67         O  0.45406291  0.58695133  0.15217000    -0.79900
H68         H  0.59371590  0.55486479  0.23695406    -0.05200
C69         C  0.49895343  0.46617789  0.33906871     0.88700
O70         O  0.53791336  0.44680611  0.16451879    -0.74400
O71         O  0.47337019  0.55458816  0.24879349    -0.87200
O72         O  0.58916140  0.52919518  0.36421538    -0.80000
C73         C  0.51916071  0.62087756  0.33985056     0.93900
C74         C  0.47166705  0.61567693  0.15269393     0.93700
Mg75       Mg  0.57009318  0.45464304  0.29810561     1.58000
O76         O  0.55207055  0.40574233  0.34121174    -0.79900
O77         O  0.58918146  0.50436011  0.25964419    -0.74100
O78         O  0.51130990  0.61974670  0.29723635    -0.80000
O79         O  0.40323183  0.52024422  0.13943330    -0.81700
O80         O  0.50055455  0.37187599  0.18589421    -0.80000
C81         C  0.57810073  0.53608667  0.25603707     0.88200
O82         O  0.54016370  0.43840630  0.23863670    -0.87200
O83         O  0.52477793  0.48198765  0.32281651    -0.87300
O84         O  0.48444224  0.44002968  0.31878234    -0.74300
Mg85       Mg  0.52047498  0.58360038  0.23318611     1.58000
O86         O  0.53480416  0.59520170  0.35962884    -0.81700
H87         H  0.52208506  0.51605161  0.11597189    -0.05400
O88         O  0.46346530  0.44640550  0.21666792    -0.87000
H89         H  0.42161191  0.43740049  0.25659355    -0.05200
H90         H  0.58308509  0.43490216  0.19909982    -0.05400
C91         C  0.43599541  0.45618696  0.23596605     0.88100
C92         C  0.51234910  0.52570225  0.14833408     0.88700
C93         C  0.55491954  0.43953181  0.20096601     0.88800
H94         H  0.48819882  0.47500724  0.37129582    -0.05400
O95         O  0.47353482  0.54736032  0.32288432    -0.74400
Mg96       Mg  0.49385797  0.40807440  0.25206575     1.58000
H97         H  0.42981290  0.56066873  0.28647078    -0.05400
C98         C  0.39667863  0.48895244  0.12621958     0.93800
O99         O  0.47456871  0.39944296  0.12753137    -0.81600
C100        C  0.48880981  0.37197111  0.14465817     0.93800
O101        O  0.49266946  0.62284236  0.18566984    -0.81600
Mg102      Mg  0.53156765  0.53678634  0.34043113     1.58200
O103        O  0.41984299  0.46453270  0.12916756    -0.80000
O104        O  0.60503487  0.47278169  0.35705163    -0.81700
O105        O  0.51502693  0.01110399  0.16659672    -0.87200
C106        C  0.56315096  0.02824236  0.28888177     0.88800
Mg107      Mg  0.46327523  0.02877424  0.14937214     1.58100
O108        O  0.53612132  0.94104144  0.27186686    -0.87000
O109        O  0.54438142  0.96080042  0.16881477    -0.74300
C110        C  0.37431648  0.98822154  0.33517775     0.93800
O111        O  0.50498552  0.07622564  0.23591487    -0.74100
O112        O  0.36921512  0.00224868  0.29627886    -0.81600
Mg113      Mg  0.55001133  0.04943382  0.19680211     1.58000
C114        C  0.48182358  0.88601284  0.36532824     0.93800
O115        O  0.59497333  0.02681194  0.15506919    -0.79900
H116        H  0.53554513  0.89654202  0.23490844    -0.05200
C117        C  0.47065656  0.00591777  0.34064318     0.88700
O118        O  0.44108672  0.97337151  0.16574377    -0.74400
O119        O  0.55926170  0.01393822  0.25116589    -0.87200
O120        O  0.51194778  0.90084907  0.35957146    -0.80000
C121        C  0.61672328  0.95628579  0.33964932     0.93900
C122        C  0.61942379  0.00379991  0.15474694     0.93700
Mg123      Mg  0.44317013  0.93974180  0.29812010     1.58000
O124        O  0.39987066  0.96687038  0.34202095    -0.79900
O125        O  0.48715355  0.91091217  0.25846453    -0.74100
O126        O  0.61591660  0.96486063  0.29740689    -0.80000
O127        O  0.54098483  0.09005488  0.14238722    -0.81700
O128        O  0.37697015  0.02396060  0.18947182    -0.80000
C129        C  0.52050343  0.91531948  0.25476584     0.88200
O130        O  0.43390094  0.97293210  0.23992517    -0.87200
O131        O  0.47977470  0.97700028  0.32451995    -0.87300
O132        O  0.44849351  0.02608738  0.32043470    -0.74300
Mg133      Mg  0.57870635  0.96242860  0.23380966     1.58000
O134        O  0.58946857  0.94315751  0.35917927    -0.81700
H135        H  0.51212340  0.97525453  0.11656070    -0.05400
O136        O  0.45695490  0.04632450  0.21805845    -0.87000
H137        H  0.45564506  0.09009657  0.25627253    -0.05200
H138        H  0.42026193  0.93188479  0.20056596    -0.05400
C139        C  0.47160594  0.07184085  0.23679455     0.88100
C140        C  0.52363183  0.98252843  0.14906321     0.88700
C141        C  0.43096489  0.95832850  0.20229507     0.88800
H142        H  0.48215496  0.01450419  0.37260673    -0.05400
O143        O  0.55369399  0.01315671  0.32565263    -0.74400
Mg144      Mg  0.41410612  0.02407792  0.25437968     1.58000
H145        H  0.57394684  0.05464428  0.29046611    -0.05400
C146        C  0.51228825  0.10169655  0.12551914     0.93800
O147        O  0.40730098  0.04424475  0.12978331    -0.81600
C148        C  0.37823923  0.03463994  0.14798001     0.93800
O149        O  0.62290035  0.98189233  0.18746834    -0.81600
Mg150      Mg  0.53188840  0.95780941  0.34105413     1.58200
O151        O  0.48342615  0.08416574  0.12806896    -0.80000
O152        O  0.45306952  0.90187315  0.35579606    -0.81700
O153        O  0.02056015  0.99172642  0.17579936    -0.87200
C154        C  0.04597648  0.94629995  0.29868210     0.88800
Mg155      Mg  0.02955114  0.04605697  0.15829752     1.58100
O156        O  0.95542458  0.96007376  0.28184699    -0.87000
O157        O  0.97610876  0.95397378  0.17894098    -0.74300
C158        C  0.97745134  0.12757695  0.34520258     0.93800
O159        O  0.08337903  0.01228989  0.24371101    -0.74100
O160        O  0.98967216  0.13503644  0.30596736    -0.81600
Mg161      Mg  0.06395177  0.96302545  0.20485101     1.58000
C162        C  0.89343309  0.00573544  0.37496321     0.93800
O163        O  0.04768923  0.91371162  0.16319284    -0.79900
H164        H  0.91098425  0.95366747  0.24537417    -0.05200
C165        C  0.01039601  0.03534235  0.34925199     0.88700
O166        O  0.97130451  0.05836904  0.17543865    -0.74400
O167        O  0.03121949  0.94771934  0.26086760    -0.87200
O168        O  0.91194978  0.97803532  0.36815572    -0.80000
C169        C  0.97975201  0.88264489  0.35105706     0.93900
C170        C  0.02892597  0.88563313  0.16519965     0.93700
Mg171      Mg  0.94020978  0.05173868  0.30878947     1.58000
O172        O  0.96097858  0.09868274  0.35224249    -0.79900
O173        O  0.91783304  0.00357856  0.26940096    -0.74100
O174        O  0.98906849  0.88402554  0.30903164    -0.80000
O175        O  0.10181745  0.97939991  0.14889569    -0.81700
O176        O  0.01137287  0.13150019  0.19838061    -0.80000
C177        C  0.92739658  0.97140968  0.26510587     0.88200
O178        O  0.97032058  0.06633307  0.24953792    -0.87200
O179        O  0.98316689  0.02153680  0.33339425    -0.87300
O180        O  0.02631187  0.06073063  0.32910560    -0.74300
Mg181      Mg  0.98275803  0.92074280  0.24447112     1.58000
O182        O  0.96447958  0.90887259  0.37001551    -0.81700
H183        H  0.98415285  0.98789404  0.12627579    -0.05400
O184        O  0.04654862  0.05545318  0.22663276    -0.87000
H185        H  0.08983815  0.06294044  0.26489719    -0.05200
H186        H  0.92710126  0.07193001  0.21052712    -0.05400
C187        C  0.07404157  0.04461570  0.24520617     0.88100
C188        C  0.99364953  0.97815517  0.15879469     0.88700
C189        C  0.95506922  0.06613048  0.21205648     0.88800
H190        H  0.02115762  0.02538672  0.38099511    -0.05400
O191        O  0.02963761  0.95366172  0.33537587    -0.74400
Mg192      Mg  0.01798082  0.09436924  0.26326948     1.58000
H193        H  0.07369286  0.93945242  0.30045702    -0.05400
C194        C  0.10901906  0.00968654  0.13235171     0.93800
O195        O  0.03506460  0.10420828  0.13847604    -0.81600
C196        C  0.02173192  0.13175304  0.15671472     0.93800
O197        O  0.00879136  0.87962734  0.19913771    -0.81600
Mg198      Mg  0.97152237  0.96731569  0.35081270     1.58200
O199        O  0.08781456  0.03579597  0.13623759    -0.80000
O200        O  0.90632115  0.03635678  0.36850964    -0.81700
O201        O  0.97995628  0.49060426  0.18965389    -0.87200
C202        C  0.92707845  0.46868690  0.30803161     0.88800
Mg203      Mg  0.03259117  0.47321305  0.17527980     1.58100
O204        O  0.95743627  0.55547634  0.29775709    -0.87000
O205        O  0.94964494  0.54011532  0.19374451    -0.74300
C206        C  0.11613240  0.50311543  0.37123949     0.93800
O207        O  0.98586537  0.42213533  0.25276298    -0.74100
O208        O  0.12043668  0.48662710  0.33382408    -0.81600
Mg209      Mg  0.94279926  0.45171708  0.21256546     1.58000
C210        C  0.00946534  0.60720159  0.39623247     0.93800
O211        O  0.89910630  0.47897840  0.16808524    -0.79900
H212        H  0.96068776  0.60078861  0.26271509    -0.05200
C213        C  0.01787948  0.48629258  0.36663884     0.88700
O214        O  0.05457726  0.52704488  0.19857649    -0.74400
O215        O  0.93181293  0.48398734  0.27110953    -0.87200
O216        O  0.97959581  0.59318030  0.38684211    -0.80000
C217        C  0.87567599  0.54481408  0.36239466     0.93900
C218        C  0.87428711  0.50152093  0.17345953     0.93700
Mg219      Mg  0.04939963  0.55400277  0.33207277     1.58000
O220        O  0.09107915  0.52519686  0.37690031    -0.79900
O221        O  0.00746612  0.58494020  0.29034931    -0.74100
O222        O  0.87533178  0.53434358  0.32078295    -0.80000
O223        O  0.95513371  0.41343397  0.15513130    -0.81700
O224        O  0.11786959  0.47290035  0.22364773    -0.80000
C225        C  0.97433305  0.58123295  0.28307981     0.88200
O226        O  0.06061786  0.52306978  0.27295201    -0.87200
O227        O  0.01104822  0.51635712  0.35220308    -0.87300
O228        O  0.03984450  0.46592601  0.34677601    -0.74300
Mg229      Mg  0.91431207  0.53641603  0.25781977     1.58000
O230        O  0.90408317  0.55496962  0.38181602    -0.81700
H231        H  0.98364059  0.52858429  0.14233940    -0.05400
O232        O  0.03539304  0.45189686  0.24249201    -0.87000
H233        H  0.03374069  0.40607726  0.27645161    -0.05200
H234        H  0.07559528  0.56591648  0.23800530    -0.05400
C235        C  0.01922641  0.42574789  0.25730802     0.88100
C236        C  0.97148785  0.51977074  0.17372700     0.88700
C237        C  0.06449671  0.53962315  0.23682741     0.88800
H238        H  0.00421159  0.47676127  0.39658763    -0.05400
O239        O  0.93603292  0.48266805  0.34596417    -0.74400
Mg240      Mg  0.07734823  0.47014442  0.28466077     1.58000
H241        H  0.91562009  0.44251911  0.30799322    -0.05400
C242        C  0.98477460  0.40180257  0.14098034     0.93800
O243        O  0.08947368  0.45830944  0.15925319    -0.81600
C244        C  0.11787812  0.46546355  0.18099869     0.93800
O245        O  0.87024991  0.51815631  0.21088329    -0.81600
Mg246      Mg  0.95952339  0.53703962  0.36599845     1.58200
O247        O  0.01337125  0.41909975  0.14778157    -0.80000
O248        O  0.03804723  0.58989320  0.39179038    -0.81700
C249        C  0.80332937  0.53172150  0.06329247    -0.04200
C250        C  0.82332965  0.55738512  0.08724468    -0.01400
C251        C  0.84731331  0.54718227  0.12186737     0.03600
C252        C  0.85100754  0.51118476  0.13411729    -0.04200
C253        C  0.83216564  0.48534941  0.10918567    -0.01300
C254        C  0.80868412  0.49552062  0.07370716     0.03600
C255        C  0.81795869  0.59472239  0.07857335     0.38300
C256        C  0.83423034  0.44858258  0.12295219     0.38300
C257        C  0.78774648  0.46857722  0.05110791     0.36700
C258        C  0.86771287  0.57413410  0.14566503     0.36700
N259        N  0.77315876  0.44669899  0.53254694    -0.38100
N260        N  0.88379215  0.59567106  0.16472177    -0.38100
N261        N  0.83529085  0.41930443  0.13432956    -0.37600
N262        N  0.81441998  0.62482290  0.07329288    -0.37600
C263        C  0.78744131  0.53957186  0.45616935    -0.04200
C264        C  0.80455610  0.57209953  0.44734883    -0.01400
C265        C  0.83255574  0.57416959  0.41566414     0.03600
C266        C  0.84273292  0.54399719  0.39053433    -0.04200
C267        C  0.82341756  0.51216750  0.39631165    -0.01300
C268        C  0.79556312  0.51015727  0.42858202     0.03600
C269        C  0.79157847  0.60403779  0.46868819     0.38300
C270        C  0.83355814  0.48082210  0.37110714     0.38300
C271        C  0.77478351  0.47815449  0.43235256     0.36700
C272        C  0.85089676  0.60751157  0.40896702     0.36700
N273        N  0.75811884  0.45247939  0.43392774    -0.38100
N274        N  0.86559098  0.63408960  0.40383599    -0.38100
N275        N  0.84179324  0.45576283  0.35117042    -0.37600
N276        N  0.78091948  0.62944809  0.98451038    -0.37600
C277        C  0.70275205  0.52997105  0.45337974    -0.04200
C278        C  0.68239109  0.49936682  0.46298124    -0.01400
C279        C  0.65322933  0.49018346  0.43522583     0.03600
C280        C  0.64384577  0.51161967  0.39768534    -0.04200
C281        C  0.66528191  0.54116610  0.38660282    -0.01300
C282        C  0.69451325  0.55039769  0.41451835     0.03600
C283        C  0.68885739  0.47880076  0.00427194     0.38300
C284        C  0.65727850  0.56219170  0.34642882     0.38300
C285        C  0.71477662  0.58199646  0.40444489     0.36700
C286        C  0.63136335  0.46004545  0.44746018     0.36700
N287        N  0.73048078  0.60739251  0.39570362    -0.38100
N288        N  0.61384863  0.43612526  0.45735760    -0.38100
N289        N  0.65100443  0.57895894  0.31435445    -0.37600
N290        N  0.69375066  0.46212849  0.03680344    -0.37600
C291        C  0.18912782  0.46950610  0.47590105    -0.04200
C292        C  0.20117846  0.48934230  0.43780755    -0.01400
C293        C  0.17715321  0.50110921  0.40424709     0.03600
C294        C  0.14062970  0.49520291  0.40955991    -0.04200
C295        C  0.12817593  0.47768468  0.44908660    -0.01300
C296        C  0.15241826  0.46381974  0.48138685     0.03600
C297        C  0.23870757  0.49589940  0.43129976     0.38300
C298        C  0.09052777  0.47168975  0.45509732     0.38300
C299        C  0.13951087  0.44104593  0.51750709     0.36700
C300        C  0.19016153  0.51813339  0.36314149     0.36700
N301        N  0.12844924  0.42272275  0.04516111    -0.38100
N302        N  0.20043865  0.53131700  0.33007813    -0.38100
N303        N  0.06058707  0.46679003  0.46054673    -0.37600
N304        N  0.26859302  0.50083453  0.42540714    -0.37600
C305        C  0.15145312  0.46636124  0.15436229    -0.04200
C306        C  0.16202298  0.49790686  0.13228031    -0.01400
C307        C  0.18869220  0.49733607  0.09829723     0.03600
C308        C  0.20464817  0.46511734  0.08557521    -0.04200
C309        C  0.19451127  0.43374321  0.10871224    -0.01300
C310        C  0.16911263  0.43465144  0.14397845     0.03600
C311        C  0.14430414  0.53078683  0.14327640     0.38300
C312        C  0.20649383  0.39978494  0.09200351     0.38300
C313        C  0.16020970  0.40256143  0.16849211     0.36700
C314        C  0.19785440  0.52957779  0.07456198     0.36700
N315        N  0.15363322  0.37692410  0.18831142    -0.38100
N316        N  0.20419902  0.55591779  0.05621753    -0.38100
N317        N  0.21497961  0.37264813  0.58060267    -0.37600
N318        N  0.13013451  0.55699847  0.15208217    -0.37600
C319        C  0.36023990  0.48036476  0.10965464    -0.04200
C320        C  0.34344161  0.44871323  0.12380005    -0.01400
C321        C  0.30927899  0.44003080  0.10758631     0.03600
C322        C  0.29074415  0.46342281  0.07857890    -0.04200
C323        C  0.30626514  0.49643351  0.06771534    -0.01300
C324        C  0.34100816  0.50461422  0.08244194     0.03600
C325        C  0.36087325  0.42510665  0.15585355     0.38300
C326        C  0.28759304  0.52149694  0.03906059     0.38300
C327        C  0.35749791  0.53726295  0.06724046     0.36700
C328        C  0.29374899  0.40635157  0.12009771     0.36700
N329        N  0.37042299  0.56330928  0.05486628    -0.38100
N330        N  0.28233956  0.37922741  0.13094390    -0.38100
N331        N  0.27387611  0.54078742  0.51516042    -0.37600
N332        N  0.37456392  0.40623518  0.18150494    -0.37600
C333        C  0.50852950  0.20068397  0.05194764    -0.04200
C334        C  0.53961240  0.17982416  0.05109934    -0.01400
C335        C  0.54135798  0.14787713  0.07570969     0.03600
C336        C  0.51236277  0.13698452  0.10281173    -0.04200
C337        C  0.48319030  0.16010419  0.10801869    -0.01300
C338        C  0.48067692  0.19112610  0.08138297     0.03600
C339        C  0.56879543  0.18973954  0.02146386     0.38300
C340        C  0.45585300  0.15223808  0.14122861     0.38300
C341        C  0.44811272  0.21126139  0.08167993     0.36700
C342        C  0.57223456  0.12544079  0.07042086     0.36700
N343        N  0.42153597  0.22639633  0.08249693    -0.38100
N344        N  0.59703970  0.10788792  0.06588234    -0.38100
N345        N  0.43437585  0.14601466  0.16815330    -0.37600
N346        N  0.59195782  0.19767583  0.99779761    -0.37600
C347        C  0.51128236  0.30149615  0.44102679    -0.04200
C348        C  0.48522960  0.31282804  0.40940898    -0.01400
C349        C  0.49326392  0.33864290  0.37637636     0.03600
C350        C  0.52815285  0.35193195  0.37216630    -0.04200
C351        C  0.55387734  0.34194546  0.40481622    -0.01300
C352        C  0.54539257  0.31706301  0.43935570     0.03600
C353        C  0.45075850  0.29577476  0.40787240     0.38300
C354        C  0.58977391  0.35526341  0.40099164     0.38300
C355        C  0.57300278  0.30522222  0.47014212     0.36700
C356        C  0.46522555  0.35153881  0.34662900     0.36700
N357        N  0.59592576  0.29638800  0.49380052    -0.38100
N358        N  0.44281882  0.36189397  0.32313422    -0.38100
N359        N  0.61852063  0.36561578  0.39788444    -0.37600
N360        N  0.42343827  0.28199838  0.40520111    -0.37600
C361        C  0.49198064  0.33980606  0.11445917    -0.04200
C362        C  0.52384841  0.32018970  0.11186811    -0.01400
C363        C  0.52749395  0.29226697  0.07974189     0.03600
C364        C  0.50048516  0.28530653  0.04739652    -0.04200
C365        C  0.46797949  0.30334174  0.05183300    -0.01300
C366        C  0.46358780  0.33003277  0.08522478     0.03600
C367        C  0.55379148  0.32994262  0.14032899     0.38300
C368        C  0.43804244  0.29279928  0.02396797     0.38300
C369        C  0.42927923  0.34680415  0.09010511     0.36700
C370        C  0.55882004  0.27040124  0.08102319     0.36700
N371        N  0.40179965  0.35993551  0.09390805    -0.38100
N372        N  0.58406180  0.25323222  0.08371787    -0.38100
N373        N  0.41335392  0.28415111  0.00327524    -0.37600
N374        N  0.57786906  0.33788732  0.16266091    -0.37600
C375        C  0.46343446  0.78237574  0.42292471    -0.04200
C376        C  0.44470728  0.79370462  0.38377434    -0.01400
C377        C  0.45357923  0.82587385  0.36231285     0.03600
C378        C  0.47916169  0.84875251  0.38199024    -0.04200
C379        C  0.49972685  0.83638972  0.41898804    -0.01300
C380        C  0.49219224  0.80312197  0.43895797     0.03600
C381        C  0.41427245  0.77407865  0.36723063     0.38300
C382        C  0.52685807  0.85889505  0.43881773     0.38300
C383        C  0.51292087  0.79160361  0.97694003     0.36700
C384        C  0.43593931  0.83552406  0.31992546     0.36700
N385        N  0.53006521  0.78370036  0.00809134    -0.38100
N386        N  0.42201572  0.84304427  0.28602504    -0.38100
N387        N  0.54842261  0.87689414  0.45474619    -0.37600
N388        N  0.38944340  0.75984525  0.35297409    -0.37600
C389        C  0.45518210  0.68759757  0.03849836    -0.04200
C390        C  0.44885796  0.65111686  0.03340521    -0.01400
C391        C  0.45715941  0.62756711  0.06931955     0.03600
C392        C  0.46782180  0.64058166  0.11291838    -0.04200
C393        C  0.47473748  0.67724140  0.11752864    -0.01300
C394        C  0.46952573  0.70026499  0.08016140     0.03600
C395        C  0.43160266  0.63760283  0.99270089     0.38300
C396        C  0.48604065  0.69199081  0.16094909     0.38300
C397        C  0.47759847  0.73760913  0.08541490     0.36700
C398        C  0.45592055  0.58982696  0.06025301     0.36700
N399        N  0.48378770  0.76737608  0.08995903    -0.38100
N400        N  0.45536199  0.55978351  0.05275815    -0.38100
N401        N  0.49501673  0.70402415  0.19543956    -0.37600
N402        N  0.41623693  0.62514735  0.46160745    -0.37600
C403        C  0.47682223  0.69938064  0.43310253    -0.04200
C404        C  0.51254336  0.68901476  0.43676526    -0.01400
C405        C  0.52729609  0.66508603  0.40470494     0.03600
C406        C  0.50627004  0.65100693  0.36874665    -0.04200
C407        C  0.47045109  0.66179366  0.36518403    -0.01300
C408        C  0.45572443  0.68479676  0.39791610     0.03600
C409        C  0.53348312  0.70110208  0.47516058     0.38300
C410        C  0.44771590  0.64766069  0.32948941     0.38300
C411        C  0.41771881  0.68999108  0.39881986     0.36700
C412        C  0.56424890  0.65516722  0.40864890     0.36700
N413        N  0.38672207  0.69450616  0.90059115    -0.38100
N414        N  0.59377707  0.64736539  0.41179680    -0.38100
N415        N  0.42941459  0.63675541  0.30098893    -0.37600
N416        N  0.55053126  0.70984681  0.50607746    -0.37600
C417        C  0.20515598  0.02593016  0.05500807    -0.04200
C418        C  0.19616721  0.04973044  0.09002798    -0.01400
C419        C  0.16534113  0.04398357  0.11638428     0.03600
C420        C  0.14311248  0.01448357  0.10744302    -0.04200
C421        C  0.15363390  0.98947101  0.07432191    -0.01300
C422        C  0.18434689  0.99524133  0.04823487     0.03600
C423        C  0.21768941  0.08099441  0.09742290     0.38300
C424        C  0.13184773  0.95871214  0.06470430     0.38300
C425        C  0.19339223  0.97048399  0.01219053     0.36700
C426        C  0.15670413  0.06839488  0.15282607     0.36700
N427        N  0.20043813  0.95080595  0.98339837    -0.38100
N428        N  0.15000504  0.08788391  0.18197767    -0.38100
N429        N  0.11490193  0.93397837  0.05657213    -0.37600
N430        N  0.23346597  0.10735653  0.60023691    -0.37600
C431        C  0.30517889  0.02301500  0.44402236    -0.04200
C432        C  0.31434054  0.98683567  0.44027639    -0.01400
C433        C  0.33771931  0.97530738  0.40564869     0.03600
C434        C  0.35175846  0.99976509  0.37407189    -0.04200
C435        C  0.34452595  0.03619370  0.37980666    -0.01300
C436        C  0.32125826  0.04765510  0.41419755     0.03600
C437        C  0.29703977  0.96068353  0.46861218     0.38300
C438        C  0.36065598  0.06224982  0.34982835     0.38300
C439        C  0.31205219  0.08484544  0.41629921     0.36700
C440        C  0.34517830  0.93790721  0.40049569     0.36700
N441        N  0.30558436  0.11444504  0.91720032    -0.38100
N442        N  0.35105373  0.90806692  0.39631144    -0.38100
N443        N  0.37329091  0.08302363  0.32583565    -0.37600
N444        N  0.28352709  0.93887926  0.49009925    -0.37600
C445        C  0.29026879  0.03149463  0.05199323    -0.04200
C446        C  0.29452534  0.00401500  0.08427378    -0.01400
C447        C  0.32204832  0.00569815  0.11742053     0.03600
C448        C  0.34546624  0.03503694  0.11878577    -0.04200
C449        C  0.33868534  0.06399540  0.08950638    -0.01300
C450        C  0.31081386  0.06247291  0.05727108     0.01200
C451        C  0.27030887  0.97436148  0.08453010     0.38300
C452        C  0.35959261  0.09608306  0.09345775     0.38300
C453        C  0.30113882  0.09405929  0.03233359     0.36700
C454        C  0.32672294  0.97669716  0.14927435     0.36700
N455        N  0.29292086  0.11993359  0.01414260    -0.38100
N456        N  0.33029845  0.95367246  0.17490557    -0.38100
N457        N  0.37603947  0.12183058  0.09638670    -0.37600
N458        N  0.25123640  0.95042012  0.08631059    -0.37600
C459        C  0.85526753  0.00324176  0.38820267    -0.04200
C460        C  0.84299346  0.97846280  0.42059864    -0.01400
C461        C  0.80748240  0.97981625  0.43603562     0.03600
C462        C  0.78492570  0.00782224  0.42240709    -0.04200
C463        C  0.79670776  0.03111575  0.38790647    -0.01300
C464        C  0.83081712  0.02753850  0.36920639     0.03600
C465        C  0.86764937  0.95405852  0.44170640     0.38300
C466        C  0.77574112  0.06137660  0.37433180     0.38300
C467        C  0.84102178  0.05005324  0.33118675     0.36700
C468        C  0.79537624  0.95427577  0.46940138     0.36700
N469        N  0.84906748  0.06804299  0.30097025    -0.38100
N470        N  0.78614801  0.93344287  0.99417198    -0.38100
N471        N  0.76107835  0.08650616  0.36214119    -0.37600
N472        N  0.88750057  0.93509905  0.45922705    -0.37600
C473        C  0.64317704  0.00221742  0.11395534    -0.04200
C474        C  0.67847329  0.99004198  0.11746306    -0.01400
C475        C  0.70104716  0.99163522  0.07922608     0.03600
C476        C  0.68928379  0.00689364  0.03764681    -0.04200
C477        C  0.65345823  0.01651673  0.03305160    -0.01300
C478        C  0.63024930  0.01302122  0.07043155     0.03600
C479        C  0.69249855  0.97759749  0.16078025     0.38300
C480        C  0.64034759  0.03196182  0.99102397     0.38300
C481        C  0.59287706  0.02052308  0.06348204     0.36700
C482        C  0.73730323  0.97928914  0.08351752     0.36700
N483        N  0.56314828  0.02656339  0.05779711    -0.38100
N484        N  0.76619904  0.96956096  0.08727234    -0.38100
N485        N  0.62691111  0.04111116  0.45770172    -0.37600
N486        N  0.70379987  0.96768753  0.19526433    -0.37600
C487        C  0.70114708  0.99062217  0.43142651    -0.04200
C488        C  0.68716988  0.95611684  0.43535018    -0.01400
C489        C  0.66045249  0.94407256  0.40464551     0.03600
C490        C  0.64878341  0.96575714  0.36803047    -0.04200
C491        C  0.66463180  0.99958652  0.36287065    -0.01300
C492        C  0.68813984  0.01271469  0.39639210     0.03600
C493        C  0.69875689  0.93375062  0.47253395     0.38300
C494        C  0.65579502  0.02215363  0.32439920     0.38300
C495        C  0.69311210  0.05059020  0.40021148     0.36700
C496        C  0.64517802  0.90921545  0.41061452     0.36700
N497        N  0.69482102  0.08093241  0.40482802    -0.38100
N498        N  0.63287464  0.88141637  0.41534782    -0.38100
N499        N  0.64966672  0.04016239  0.29341676    -0.37600
N500        N  0.70749394  0.91563498  0.50233627    -0.37600
C501        C  0.99954755  0.20324660  0.45291684    -0.04200
C502        C  0.02550705  0.19455552  0.42001990    -0.01400
C503        C  0.01891617  0.16815430  0.38721550     0.03600
C504        C  0.98515659  0.15202564  0.38404294    -0.04200
C505        C  0.95966666  0.15940301  0.41796792    -0.01300
C506        C  0.96693408  0.18473960  0.45241962     0.03600
C507        C  0.05780686  0.21525146  0.41642061     0.38300
C508        C  0.92505045  0.14275814  0.41577334     0.38300
C509        C  0.93910957  0.19451498  0.48384898     0.36700
C510        C  0.04724408  0.15769910  0.35661264     0.36700
N511        N  0.91597149  0.19689606  0.00963011    -0.38100
N512        N  0.06982810  0.14925633  0.33236918    -0.38100
N513        N  0.89742947  0.12950522  0.41393094    -0.37600
N514        N  0.08326187  0.23199967  0.41213193    -0.37600
C515        C  0.00619487  0.21841884  0.05997255    -0.04200
C516        C  0.98053371  0.21159579  0.09396821    -0.01400
C517        C  0.98615516  0.18477263  0.12734301     0.03600
C518        C  0.01766992  0.16439404  0.12734107    -0.04200
C519        C  0.04462306  0.17375571  0.09612500    -0.01300
C520        C  0.03886819  0.20029187  0.06277444     0.03600
C521        C  0.94786411  0.23147458  0.09432308     0.38300
C522        C  0.07916583  0.15716962  0.09966725     0.38300
C523        C  0.06778117  0.21048181  0.03329712     0.36700
C524        C  0.95896491  0.17774564  0.16096101     0.36700
N525        N  0.09191254  0.21853269  0.01142105    -0.38100
N526        N  0.93731332  0.17243273  0.18797516    -0.38100
N527        N  0.10678923  0.14417797  0.10281387    -0.37600
N528        N  0.92141070  0.24681984  0.09549429    -0.37600
C529        C  0.99059965  0.30269142  0.06567170    -0.04200
C530        C  0.95931530  0.32327985  0.06478574    -0.01400
C531        C  0.95691862  0.35479636  0.09028039     0.03600
C532        C  0.98612305  0.36677139  0.11667543    -0.04200
C533        C  0.01641534  0.34456503  0.12023642    -0.01300
C534        C  0.01836465  0.31258853  0.09521482     0.03600
C535        C  0.93033638  0.31347119  0.03443491     0.38300
C536        C  0.04610364  0.35452444  0.14910893     0.38300
C537        C  0.04987867  0.29091392  0.09817594     0.36700
C538        C  0.92494427  0.37579956  0.08641224     0.36700
N539        N  0.07521701  0.27395186  0.10149300    -0.38100
N540        N  0.89931240  0.39230598  0.08306156    -0.38100
N541        N  0.06997439  0.36244456  0.17182078    -0.37600
N542        N  0.90975338  0.30828409  0.50573800    -0.37600
C543        C  0.02984684  0.86018178  0.12581910    -0.04200
C544        C  0.02402470  0.82349099  0.13200815    -0.01400
C545        C  0.02719713  0.79999202  0.09472374     0.03600
C546        C  0.03765597  0.81246346  0.05105522    -0.04200
C547        C  0.04179422  0.84915683  0.04442771    -0.01300
C548        C  0.03594860  0.87287862  0.08088391     0.03600
C549        C  0.01538091  0.80938877  0.17671426     0.38300
C550        C  0.05435116  0.86295830  0.00131026     0.38300
C551        C  0.03442682  0.91050805  0.07129153     0.36700
C552        C  0.02099214  0.76247643  0.10196782     0.36700
N553        N  0.03269162  0.94046656  0.06356536    -0.38100
N554        N  0.01641873  0.73256765  0.10794590    -0.38100
N555        N  0.06481001  0.87529529  0.96781144    -0.37600
N556        N  0.00824768  0.79794116  0.21216907    -0.37600
C557        C  0.01526568  0.80050601  0.44535148    -0.04200
C558        C  0.98084692  0.81448415  0.44906847    -0.01400
C559        C  0.96811523  0.83942189  0.41657904     0.03600
C560        C  0.98993624  0.85119440  0.38015075    -0.04200
C561        C  0.02418593  0.83620331  0.37602813    -0.01300
C562        C  0.03716205  0.81256267  0.40953078     0.03600
C563        C  0.95944735  0.80452570  0.98714541     0.38300
C564        C  0.04724167  0.84627160  0.33866986     0.38300
C565        C  0.07478794  0.80521226  0.41148987     0.36700
C566        C  0.93206956  0.85211563  0.42000864     0.36700
N567        N  0.10503154  0.80072763  0.41415739    -0.38100
N568        N  0.90310433  0.86180482  0.42249701    -0.38100
N569        N  0.06559969  0.85383234  0.30864815    -0.37600
N570        N  0.94206980  0.79754677  0.01833271    -0.37600
C571        C  0.02530345  0.71568416  0.43950558    -0.04200
C572        C  0.04444711  0.70150184  0.40249189    -0.01400
C573        C  0.03768120  0.66683812  0.38703031     0.03600
C574        C  0.01202795  0.64543462  0.40882678    -0.04200
C575        C  0.99001714  0.66085331  0.44219446    -0.01300
C576        C  0.99672378  0.69581741  0.45758950     0.03600
C577        C  0.07283165  0.72144424  0.38152189     0.38300
C578        C  0.96206257  0.64005376  0.46291730     0.38300
C579        C  0.97644853  0.70998206  0.99493006     0.36700
C580        C  0.05773599  0.65305656  0.34871514     0.36700
N581        N  0.96002665  0.72057933  0.02521753    -0.38100
N582        N  0.07378952  0.64211065  0.31827576    -0.38100
N583        N  0.93871033  0.62409238  0.97872921    -0.37600
N584        N  0.09577278  0.73586119  0.36318477    -0.37600
N585        N  0.02962341  0.77576240  0.97858027    -0.02400
C586        C  0.04267668  0.74318482  0.96758535     0.00200
C587        C  0.06979983  0.73421427  0.49738929    -0.22700
C588        C  0.07397264  0.76152737  0.52738121    -0.22900
C589        C  0.04863260  0.78653765  0.51650910     0.00100
H590        H  0.08335322  0.70904608  0.49873469     0.13900
H591        H  0.09117482  0.76156203  0.55703008     0.13900
N592        N  0.00112328  0.24521488  0.52241527    -0.02400
C593        C  0.99964955  0.28137149  0.52460202     0.00200
C594        C  0.99831762  0.29462616  0.98247197    -0.22700
C595        C  0.99971435  0.26758919  0.95202777    -0.22900
C596        C  0.00072049  0.23672283  0.97708097     0.00100
H597        H  0.99609895  0.32242816  0.97416045     0.13900
H598        H  0.99895505  0.27002361  0.91520945     0.13900
N599        N  0.72599210  0.00559824  0.96439903    -0.02400
C600        C  0.75797998  0.02081057  0.95449756     0.00200
C601        C  0.76729515  0.04405799  0.48881306    -0.22700
C602        C  0.74096108  0.04373463  0.52051769    -0.22900
C603        C  0.71596139  0.01954869  0.50574552     0.00100
H604        H  0.79220797  0.05811646  0.49155234     0.13900
H605        H  0.74127073  0.05755954  0.55286999     0.13900
N606        N  0.26417642  0.02961039  0.51331909    -0.02400
C607        C  0.22896991  0.03712540  0.51616419     0.00200
C608        C  0.21576123  0.04578926  0.97572474    -0.22700
C609        C  0.24278069  0.04336236  0.94514260    -0.22900
C610        C  0.27244751  0.03324635  0.96946093     0.00100
H611        H  0.18821606  0.05062323  0.96754901     0.13900
H612        H  0.24064404  0.04666590  0.90852931     0.13900
N613        N  0.46053972  0.72413772  0.96611693    -0.02400
C614        C  0.44674923  0.75628072  0.95487354     0.00200
C615        C  0.42012253  0.76488519  0.48294291    -0.22700
C616        C  0.41692605  0.73799078  0.51392066    -0.22900
C617        C  0.44240022  0.71315850  0.50318216     0.00100
H618        H  0.40604240  0.78977048  0.48355681     0.13900
H619        H  0.40017089  0.73808604  0.54381070     0.13900
N620        N  0.50592607  0.25977160  0.51043557    -0.02400
C621        C  0.50190758  0.22394300  0.51292246     0.00200
C622        C  0.49963889  0.20982223  0.96913943    -0.22700
C623        C  0.50239308  0.23707769  0.93900890    -0.22900
C624        C  0.50569652  0.26759781  0.96450678     0.00100
H625        H  0.49844957  0.18200239  0.96055852     0.13900
H626        H  0.50289683  0.23489091  0.90217031     0.13900
N627        N  0.22821974  0.46216703  0.54565148    -0.02400
C628        C  0.26149286  0.44831386  0.54895164     0.00200
C629        C  0.26928249  0.42891193  0.01203826    -0.22700
C630        C  0.24028275  0.42991176  0.98411379    -0.22900
C631        C  0.21582837  0.45175488  0.00486382     0.00100
H632        H  0.29466604  0.41734537  0.00386077     0.13900
H633        H  0.23891886  0.41960262  0.94968479     0.13900
N634        N  0.76227799  0.53681824  0.99372274    -0.02400
C635        C  0.72696415  0.54363694  0.99009614     0.00200
C636        C  0.71331839  0.55482875  0.53088564    -0.22700
C637        C  0.74070790  0.55440373  0.56156566    -0.22900
C638        C  0.77026407  0.54339284  0.53803613     0.00100
H639        H  0.68574501  0.55946006  0.53880329     0.13900
H640        H  0.73881462  0.55920108  0.59789515     0.13900
O641        O  0.48582842  0.51141149  0.66561069    -0.87200
C642        C  0.45734846  0.55444979  0.78622252     0.88800
Mg643      Mg  0.47914481  0.45707790  0.64813812     1.58100
O644        O  0.54900727  0.54624926  0.77256229    -0.87000
O645        O  0.52878550  0.55090172  0.66881043    -0.74300
C646        C  0.53760534  0.37652379  0.83344292     0.93800
O647        O  0.42520119  0.48732538  0.73422660    -0.74100
O648        O  0.52615345  0.36859293  0.79378056    -0.81600
Mg649      Mg  0.44088412  0.53740086  0.69447512     1.58000
C650        C  0.61083567  0.50475158  0.87152498     0.93800
O651        O  0.45340526  0.58672789  0.65258257    -0.79900
H652        H  0.59320103  0.55574727  0.73720577    -0.05200
C653        C  0.49938380  0.46588666  0.83898605     0.88700
O654        O  0.53832777  0.44736087  0.66437329    -0.74400
O655        O  0.47291827  0.55434219  0.74917954    -0.87200
O656        O  0.58895212  0.52977938  0.86447994    -0.80000
C657        C  0.51793522  0.62067442  0.84068000     0.93900
C658        C  0.47080314  0.61558133  0.65308571     0.93700
Mg659      Mg  0.57057236  0.45514009  0.79797347     1.58000
O660        O  0.55293193  0.40607634  0.84110471    -0.79900
O661        O  0.58913863  0.50513986  0.75966450    -0.74100
O662        O  0.51010553  0.61972722  0.79803959    -0.80000
O663        O  0.40289737  0.51973496  0.63991924    -0.81700
O664        O  0.50186816  0.37203945  0.68539607    -0.80000
C665        C  0.57777939  0.53678646  0.75625230     0.88200
O666        O  0.54081206  0.43872402  0.73844759    -0.87200
O667        O  0.52502066  0.48198044  0.82271412    -0.87300
O668        O  0.48510901  0.43963358  0.81866198    -0.74300
Mg669      Mg  0.51970083  0.58385029  0.73373246     1.58000
O670        O  0.53371806  0.59499109  0.86024085    -0.81700
H671        H  0.52197930  0.51653235  0.61630206    -0.05400
O672        O  0.46399298  0.44611357  0.71665813    -0.87000
H673        H  0.42231663  0.43670363  0.75673778    -0.05200
H674        H  0.58368488  0.43577755  0.69873921    -0.05400
C675        C  0.43649178  0.45564379  0.73610139     0.88100
C676        C  0.51212199  0.52604133  0.64867433     0.88700
C677        C  0.55547978  0.44012950  0.70072903     0.88800
H678        H  0.48858912  0.47455226  0.87126589    -0.05400
O679        O  0.47311441  0.54674764  0.82320303    -0.74400
Mg680      Mg  0.49481200  0.40794054  0.75183659     1.58000
H681        H  0.42929598  0.55986542  0.78687200    -0.05400
C682        C  0.39655718  0.48844927  0.62652871     0.93800
O683        O  0.47537131  0.39953673  0.62731970    -0.81600
C684        C  0.48997405  0.37216655  0.64422155     0.93800
O685        O  0.49159001  0.62294250  0.68622395    -0.81600
Mg686      Mg  0.53123939  0.53673053  0.84067775     1.58200
O687        O  0.41992487  0.46419142  0.62932494    -0.80000
O688        O  0.60523967  0.47350593  0.85696675    -0.81700
O689        O  0.51416414  0.01051484  0.66660770    -0.87200
C690        C  0.56266730  0.02791235  0.78880258     0.88800
Mg691      Mg  0.46238251  0.02819896  0.64910550     1.58100
O692        O  0.53569810  0.94063415  0.77206237    -0.87000
O693        O  0.54372380  0.96031806  0.66903358    -0.74300
C694        C  0.37365961  0.98780578  0.83524361     0.93800
O695        O  0.50395531  0.07548662  0.73591657    -0.74100
O696        O  0.36819488  0.00162956  0.79627639    -0.81600
Mg697      Mg  0.54910755  0.04886298  0.69684045     1.58000
C698        C  0.48123661  0.88629001  0.86537473     0.93800
O699        O  0.59417172  0.02637353  0.65513734    -0.79900
H700        H  0.53501465  0.89610572  0.73516107    -0.05200
C701        C  0.46994433  0.00585191  0.84012192     0.88700
O702        O  0.44020778  0.97277022  0.66542930    -0.74400
O703        O  0.55854702  0.01346720  0.75122845    -0.87200
O704        O  0.51143262  0.90088770  0.85941736    -0.80000
C705        C  0.61635293  0.95606012  0.84000475     0.93900
C706        C  0.61871428  0.00345416  0.65496278     0.93700
Mg707      Mg  0.44262908  0.93960701  0.79806384     1.58000
O708        O  0.39942211  0.96670518  0.84192171    -0.79900
O709        O  0.48663046  0.91065872  0.75855081    -0.74100
O710        O  0.61545816  0.96441563  0.79767132    -0.80000
O711        O  0.54005019  0.08944763  0.64247845    -0.81700
O712        O  0.37582856  0.02332917  0.68888307    -0.80000
C713        C  0.52000811  0.91494916  0.75495491     0.88200
O714        O  0.43304739  0.97245302  0.73960541    -0.87200
O715        O  0.47926213  0.97699821  0.82400824    -0.87300
O716        O  0.44750140  0.02577555  0.82000820    -0.74300
Mg717      Mg  0.57815406  0.96201470  0.73400115     1.58000
O718        O  0.58905907  0.94315267  0.85972551    -0.81700
H719        H  0.51131977  0.97447886  0.61678574    -0.05400
O720        O  0.45581366  0.04584720  0.71769030    -0.87000
H721        H  0.45463060  0.08946078  0.75620311    -0.05200
H722        H  0.41942752  0.93131740  0.70037517    -0.05400
C723        C  0.47055116  0.07122737  0.73663730     0.88100
C724        C  0.52284398  0.98190222  0.64922750     0.88700
C725        C  0.43011321  0.95777159  0.70202463     0.88800
H726        H  0.48144416  0.01456653  0.87202608    -0.05400
O727        O  0.55328345  0.01301103  0.82571153    -0.74400
Mg728      Mg  0.41300149  0.02353790  0.75400154     1.58000
H729        H  0.57358278  0.05427146  0.79013504    -0.05400
C730        C  0.51142570  0.10114925  0.62550088     0.93800
O731        O  0.40638324  0.04360308  0.62933254    -0.81600
C732        C  0.37723921  0.03406063  0.64739077     0.93800
O733        O  0.62222713  0.98159342  0.68772088    -0.81600
Mg734      Mg  0.53138264  0.95775530  0.84109573     1.58200
O735        O  0.48251700  0.08367215  0.62788576    -0.80000
O736        O  0.45260083  0.90244173  0.85623768    -0.81700
O737        O  0.02096765  0.99205953  0.67544117    -0.87200
C738        C  0.04668613  0.94716595  0.79888686     0.88800
Mg739      Mg  0.02964461  0.04632643  0.65712617     1.58100
O740        O  0.95602920  0.96018131  0.78171839    -0.87000
O741        O  0.97687650  0.95391846  0.67894108    -0.74300
C742        C  0.97744686  0.12772542  0.84357119     0.93800
O743        O  0.08389462  0.01332225  0.74304342    -0.74100
O744        O  0.98956299  0.13537820  0.80435683    -0.81600
Mg745      Mg  0.06453764  0.96372948  0.70490301     1.58000
C746        C  0.89390539  0.00590704  0.87429941     0.93800
O747        O  0.04852345  0.91419226  0.66380729    -0.79900
H748        H  0.91167504  0.95327435  0.74522339    -0.05200
C749        C  0.01084851  0.03581948  0.84806191     0.88700
O750        O  0.97140825  0.05860627  0.67415345    -0.74400
O751        O  0.03189760  0.94856235  0.76109767    -0.87200
O752        O  0.91239978  0.97817311  0.86770890    -0.80000
C753        C  0.98056457  0.88320009  0.85139308     0.93900
C754        C  0.02996510  0.88600896  0.66599009     0.93700
Mg755      Mg  0.94055516  0.05174212  0.80759929     1.58000
O756        O  0.96120823  0.09871241  0.85053323    -0.79900
O757        O  0.91828028  0.00340313  0.76859202    -0.74100
O758        O  0.98998326  0.88462181  0.80942649    -0.80000
O759        O  0.10220168  0.97981363  0.64877895    -0.81700
O760        O  0.01168652  0.13202421  0.69683056    -0.80000
C761        C  0.92797284  0.97124560  0.76476863     0.88200
O762        O  0.97058836  0.06641029  0.74822568    -0.87200
O763        O  0.98359606  0.02185633  0.83249253    -0.87300
O764        O  0.02657198  0.06122589  0.82769009    -0.74300
Mg765      Mg  0.98369016  0.92104408  0.74475243     1.58000
O766        O  0.96521291  0.90938724  0.87032840    -0.81700
H767        H  0.98457260  0.98764822  0.62598528    -0.05400
O768        O  0.04689176  0.05615833  0.72527764    -0.87000
H769        H  0.09028081  0.06424294  0.76314177    -0.05200
H770        H  0.92727550  0.07211376  0.70941913    -0.05400
C771        C  0.07449109  0.04563844  0.74388873     0.88100
C772        C  0.99417126  0.97816747  0.65858282     0.88700
C773        C  0.95524176  0.06629564  0.71082657     0.88800
H774        H  0.02180078  0.02599334  0.87976659    -0.05400
O775        O  0.03028748  0.95433075  0.83559072    -0.74400
Mg776      Mg  0.01811674  0.09484472  0.76181636     1.58000
H777        H  0.07444037  0.94047398  0.80063646    -0.05400
C778        C  0.10910411  0.00991922  0.63153842     0.93800
O779        O  0.03495439  0.10454090  0.63679353    -0.81600
C780        C  0.02195796  0.13224021  0.65510964     0.93800
O781        O  0.01006670  0.87992321  0.70009707    -0.81600
Mg782      Mg  0.97206376  0.96774667  0.85063987     1.58200
O783        O  0.08772537  0.03592475  0.63492506    -0.80000
O784        O  0.90688200  0.03646684  0.86766099    -0.81700
O785        O  0.97995927  0.49229227  0.68903283    -0.87200
C786        C  0.92725464  0.46875795  0.80687773     0.88800
Mg787      Mg  0.03266646  0.47528586  0.67445239     1.58100
O788        O  0.95716596  0.55570791  0.79776742    -0.87000
O789        O  0.94926601  0.54151854  0.69365219    -0.74300
C790        C  0.11610434  0.50363799  0.87119464     0.93800
O791        O  0.98628158  0.42317180  0.75073300    -0.74100
O792        O  0.12060004  0.48732676  0.83365956    -0.81600
Mg793      Mg  0.94300160  0.45298394  0.71112354     1.58000
C794        C  0.00885326  0.60699489  0.89639192     0.93800
O795        O  0.89917789  0.48052704  0.66727905    -0.79900
H796        H  0.96035588  0.60117638  0.76305227    -0.05200
C797        C  0.01799557  0.48635378  0.86585154     0.88700
O798        O  0.05448121  0.52897544  0.69855879    -0.74400
O799        O  0.93185710  0.48447927  0.77022032    -0.87200
O800        O  0.97903785  0.59294513  0.88682336    -0.80000
C801        C  0.87536829  0.54411488  0.86229559     0.93900
C802        C  0.87417439  0.50279351  0.67307342     0.93700
Mg803      Mg  0.04918805  0.55445767  0.83226989     1.58000
O804        O  0.09094092  0.52558944  0.87687292    -0.79900
O805        O  0.00713116  0.58537277  0.79072532    -0.74100
O806        O  0.87502594  0.53394717  0.82057840    -0.80000
O807        O  0.95536003  0.41550828  0.65290064    -0.81700
O808        O  0.11814961  0.47456346  0.72286904    -0.80000
C809        C  0.97402221  0.58157753  0.78332423     0.88200
O810        O  0.06082655  0.52418072  0.77282956    -0.87200
O811        O  0.01099673  0.51644667  0.85167157    -0.87300
O812        O  0.04011078  0.46624931  0.84584272    -0.74300
Mg813      Mg  0.91403733  0.53691966  0.75774143     1.58000
O814        O  0.90377615  0.55417077  0.88180948    -0.81700
H815        H  0.98340539  0.53063057  0.64216395    -0.05400
O816        O  0.03567900  0.45333539  0.74131331    -0.87000
H817        H  0.03418008  0.40710592  0.77434597    -0.05200
H818        H  0.07565702  0.56741017  0.73856365    -0.05400
C819        C  0.01961032  0.42693077  0.75554782     0.88100
C820        C  0.97129555  0.52150354  0.67343141     0.88700
C821        C  0.06457873  0.54111669  0.73697211     0.88800
H822        H  0.00434924  0.47656807  0.89568593    -0.05400
O823        O  0.93619122  0.48238302  0.84503374    -0.74400
Mg824      Mg  0.07762663  0.47119895  0.78386569     1.58000
H825        H  0.91594425  0.44252887  0.80639847    -0.05400
C826        C  0.98510861  0.40387429  0.63916667     0.93800
O827        O  0.08956968  0.46102386  0.65818718    -0.81600
C828        C  0.11802796  0.46774700  0.68003641     0.93800
O829        O  0.87001156  0.51898176  0.71077228    -0.81600
Mg830      Mg  0.95934532  0.53674731  0.86571873     1.58200
O831        O  0.01369719  0.42111814  0.64639734    -0.80000
O832        O  0.03743878  0.58964485  0.89242548    -0.81700
C833        C  0.80310315  0.53272890  0.56299999    -0.04200
C834        C  0.82246214  0.55856886  0.58751051    -0.01400
C835        C  0.84629456  0.54853908  0.62237898     0.03600
C836        C  0.85070698  0.51249323  0.63398499    -0.04200
C837        C  0.83249640  0.48652991  0.60852897    -0.01300
C838        C  0.80906003  0.49655145  0.57296436     0.03600
C839        C  0.81665895  0.59587076  0.57900448     0.38300
C840        C  0.83508096  0.44970603  0.62193228     0.38300
C841        C  0.78881175  0.46937902  0.54980714     0.36700
C842        C  0.86567721  0.57570844  0.64715663     0.36700
N843        N  0.77148174  0.44616338  0.03420373    -0.38100
N844        N  0.88086161  0.59744747  0.66703067    -0.38100
N845        N  0.83658319  0.42039377  0.63308057    -0.37600
N846        N  0.81279500  0.62594102  0.57381161    -0.37600
C847        C  0.78744014  0.53911824  0.95648209    -0.04200
C848        C  0.80455547  0.57160796  0.94742352    -0.01400
C849        C  0.83229508  0.57360089  0.91535837     0.03600
C850        C  0.84239045  0.54334257  0.89037324    -0.04200
C851        C  0.82298767  0.51157593  0.89629205    -0.01300
C852        C  0.79530365  0.50966958  0.92883637     0.03600
C853        C  0.79181769  0.60359517  0.96887873     0.38300
C854        C  0.83273911  0.48025807  0.87078583     0.38300
C855        C  0.77440853  0.47776059  0.93290751     0.36700
C856        C  0.85035928  0.60699542  0.90788925     0.36700
N857        N  0.75756748  0.45221552  0.93483246    -0.38100
N858        N  0.86482570  0.63359950  0.90198319    -0.38100
N859        N  0.84060870  0.45521472  0.85056728    -0.37600
N860        N  0.78047801  0.62982762  0.48425465    -0.37600
C861        C  0.70267989  0.52997902  0.95397565    -0.04200
C862        C  0.68178410  0.49975332  0.96373532    -0.01400
C863        C  0.65251242  0.49094036  0.93598962     0.03600
C864        C  0.64359338  0.51229112  0.89820752    -0.04200
C865        C  0.66544451  0.54149313  0.88701960    -0.01300
C866        C  0.69485658  0.55032010  0.91486818     0.03600
C867        C  0.68978920  0.47851294  0.50351530     0.38300
C868        C  0.65764827  0.56259902  0.84684771     0.38300
C869        C  0.71587684  0.58130204  0.90423841     0.36700
C870        C  0.63003203  0.46130194  0.94844518     0.36700
N871        N  0.73219183  0.60617002  0.89485518    -0.38100
N872        N  0.61197761  0.43781581  0.95846557    -0.38100
N873        N  0.65151183  0.57945843  0.81480941    -0.37600
N874        N  0.69498425  0.46197774  0.53608827    -0.37600
C875        C  0.18903952  0.47081635  0.97648333    -0.04200
C876        C  0.20094680  0.49114411  0.93873253    -0.01400
C877        C  0.17696183  0.50245324  0.90485642     0.03600
C878        C  0.14053025  0.49580229  0.90964701    -0.04200
C879        C  0.12812168  0.47798844  0.94897991    -0.01300
C880        C  0.15238735  0.46447042  0.98151638     0.03600
C881        C  0.23835192  0.49867350  0.93282193     0.38300
C882        C  0.09054230  0.47131223  0.95451996     0.38300
C883        C  0.13958745  0.44143399  0.01741840     0.36700
C884        C  0.18997632  0.51969044  0.86390661     0.36700
N885        N  0.12836914  0.42251980  0.54545309    -0.38100
N886        N  0.20031097  0.53299603  0.83095576    -0.38100
N887        N  0.06065654  0.46585213  0.95959038    -0.37600
N888        N  0.26812787  0.50444059  0.92726139    -0.37600
C889        C  0.15161613  0.46821344  0.65345014    -0.04200
C890        C  0.16211533  0.49922882  0.63009738    -0.01400
C891        C  0.18876899  0.49786541  0.59610720     0.03600
C892        C  0.20493447  0.46538400  0.58487048    -0.04200
C893        C  0.19473870  0.43457096  0.60919799    -0.01300
C894        C  0.16921842  0.43627586  0.64424396     0.03600
C895        C  0.14432935  0.53232598  0.63980196     0.38300
C896        C  0.20657545  0.40021192  0.59376299     0.38300
C897        C  0.15972874  0.40462147  0.66934953     0.36700
C898        C  0.19752328  0.52945797  0.57070261     0.36700
N899        N  0.15248009  0.37935914  0.68957277    -0.38100
N900        N  0.20344413  0.55528611  0.55095763    -0.38100
N901        N  0.21516939  0.37261092  0.07781592    -0.37600
N902        N  0.13011105  0.55870565  0.64760517    -0.37600
C903        C  0.36017788  0.47967570  0.60978344    -0.04200
C904        C  0.34371709  0.44769787  0.62330546    -0.01400
C905        C  0.30988910  0.43856352  0.60634710     0.03600
C906        C  0.29104408  0.46206930  0.57777941    -0.04200
C907        C  0.30621995  0.49534880  0.56745141    -0.01300
C908        C  0.34075130  0.50389702  0.58272816     0.03600
C909        C  0.36105965  0.42431075  0.65570670     0.38300
C910        C  0.28763414  0.52015127  0.53831189     0.38300
C911        C  0.35678925  0.53698806  0.56835908     0.36700
C912        C  0.29525254  0.40414803  0.61722800     0.36700
N913        N  0.36929387  0.56342713  0.55667610    -0.38100
N914        N  0.28466229  0.37635492  0.62652499    -0.38100
N915        N  0.27373376  0.54245130  0.01649633    -0.37600
N916        N  0.37462929  0.40567486  0.68175034    -0.37600
C917        C  0.50843585  0.20049165  0.55265106    -0.04200
C918        C  0.53938660  0.17945159  0.55177847    -0.01400
C919        C  0.54078810  0.14728648  0.57594698     0.03600
C920        C  0.51169600  0.13648337  0.60293465    -0.04200
C921        C  0.48272386  0.15980693  0.60833937    -0.01300
C922        C  0.48044774  0.19094908  0.58190511     0.03600
C923        C  0.56872073  0.18935207  0.52239014     0.38300
C924        C  0.45535995  0.15203244  0.64154923     0.38300
C925        C  0.44796048  0.21120233  0.58220827     0.36700
C926        C  0.57136497  0.12451418  0.57021856     0.36700
N927        N  0.42139746  0.22635731  0.58310489    -0.38100
N928        N  0.59591970  0.10668078  0.56528272    -0.38100
N929        N  0.43386732  0.14591438  0.66849314    -0.37600
N930        N  0.59202037  0.19725662  0.49893078    -0.37600
C931        C  0.51127528  0.30224473  0.94120111    -0.04200
C932        C  0.48550762  0.31362568  0.90923956    -0.01400
C933        C  0.49389923  0.33929311  0.87616088     0.03600
C934        C  0.52889075  0.35235380  0.87219815    -0.04200
C935        C  0.55430140  0.34245423  0.90532212    -0.01300
C936        C  0.54544025  0.31773063  0.93992942     0.03600
C937        C  0.45097829  0.29671886  0.90736593     0.38300
C938        C  0.59022620  0.35578177  0.90204427     0.38300
C939        C  0.57268919  0.30600534  0.97132990     0.36700
C940        C  0.46609530  0.35232105  0.84615419     0.36700
N941        N  0.59526345  0.29723682  0.99558438    -0.38100
N942        N  0.44384917  0.36279265  0.82249440    -0.38100
N943        N  0.61898893  0.36617679  0.89941901    -0.37600
N944        N  0.42361339  0.28306730  0.90440874    -0.37600
C945        C  0.49323652  0.34009095  0.61390779    -0.04200
C946        C  0.52535364  0.32096290  0.61056552    -0.01400
C947        C  0.52875669  0.29270452  0.57888543     0.03600
C948        C  0.50133577  0.28518592  0.54733277    -0.04200
C949        C  0.46877804  0.30303685  0.55217359    -0.01300
C950        C  0.46455470  0.32984372  0.58543264     0.03600
C951        C  0.55576210  0.33164400  0.63761837     0.38300
C952        C  0.43867260  0.29222060  0.52479219     0.38300
C953        C  0.43014021  0.34625520  0.59095826     0.36700
C954        C  0.56016599  0.27095389  0.58000080     0.36700
N955        N  0.40256965  0.35908810  0.59528935    -0.38100
N956        N  0.58546553  0.25385886  0.58259369    -0.38100
N957        N  0.41391754  0.28332167  0.50441201    -0.37600
N958        N  0.58021847  0.34039787  0.65872864    -0.37600
C959        C  0.46245628  0.78294542  0.92340735    -0.04200
C960        C  0.44260042  0.79491464  0.88552023    -0.01400
C961        C  0.45157152  0.82684124  0.86361981     0.03600
C962        C  0.47830769  0.84906010  0.88197348    -0.04200
C963        C  0.49978035  0.83613376  0.91777762    -0.01300
C964        C  0.49217060  0.80297968  0.93797968     0.03600
C965        C  0.41082925  0.77642651  0.87109119     0.38300
C966        C  0.52800466  0.85797947  0.93627192     0.38300
C967        C  0.51204345  0.79216408  0.47888374     0.36700
C968        C  0.43275735  0.83694607  0.82224401     0.36700
N969        N  0.52845856  0.78448980  0.51077440    -0.38100
N970        N  0.41785918  0.84483990  0.78918133    -0.38100
N971        N  0.55042719  0.87548250  0.95111302    -0.37600
N972        N  0.38486491  0.76322147  0.85867940    -0.37600
C973        C  0.45473181  0.68718460  0.53816856    -0.04200
C974        C  0.44812948  0.65071674  0.53343297    -0.01400
C975        C  0.45610887  0.62727334  0.56961407     0.03600
C976        C  0.46701410  0.64037308  0.61308855    -0.04200
C977        C  0.47425762  0.67700701  0.61734532    -0.01300
C978        C  0.46883258  0.69998050  0.57993255     0.03600
C979        C  0.43072186  0.63713523  0.49287539     0.38300
C980        C  0.48638469  0.69177208  0.66039829     0.38300
C981        C  0.47611591  0.73745686  0.58546077     0.36700
C982        C  0.45430397  0.58950362  0.56089296     0.36700
N983        N  0.48150258  0.76733364  0.59045482    -0.38100
N984        N  0.45327023  0.55942899  0.55368370    -0.38100
N985        N  0.49614211  0.70378858  0.69454991    -0.37600
N986        N  0.41729370  0.62569848  0.96124498    -0.37600
C987        C  0.47629928  0.70000529  0.93349797    -0.04200
C988        C  0.51170878  0.68874379  0.93777816    -0.01400
C989        C  0.52616634  0.66438846  0.90605448     0.03600
C990        C  0.50515192  0.65073354  0.86979746    -0.04200
C991        C  0.46948130  0.66198239  0.86603170    -0.01300
C992        C  0.45509212  0.68562104  0.89828065     0.03600
C993        C  0.53256353  0.70026089  0.97654874     0.38300
C994        C  0.44638884  0.64731226  0.83108095     0.38300
C995        C  0.41716929  0.69140163  0.89901128     0.36700
C996        C  0.56269732  0.65324380  0.91104456     0.36700
N997        N  0.38723496  0.69273325  0.40046493    -0.38100
N998        N  0.59183390  0.64431457  0.91513158    -0.38100
N999        N  0.42770476  0.63587425  0.80335083    -0.37600
N1000       N  0.54955118  0.70849181  0.00775595    -0.37600
C1001       C  0.20457797  0.02646693  0.55326479    -0.04200
C1002       C  0.19544537  0.05054473  0.58788367    -0.01400
C1003       C  0.16473954  0.04478759  0.61439834     0.03600
C1004       C  0.14308920  0.01470279  0.60649122    -0.04200
C1005       C  0.15400769  0.98925205  0.57414135    -0.01300
C1006       C  0.18412263  0.99546467  0.54711743     0.03600
C1007       C  0.21663890  0.08211520  0.59464702     0.38300
C1008       C  0.13346547  0.95731174  0.56663370     0.38300
C1009       C  0.19276948  0.97087159  0.51071152     0.36700
C1010       C  0.15565583  0.06977277  0.65000736     0.36700
N1011       N  0.19939004  0.95139342  0.48152367    -0.38100
N1012       N  0.14853508  0.08972833  0.67845487    -0.38100
N1013       N  0.11769341  0.93150337  0.56037666    -0.37600
N1014       N  0.23478963  0.10599313  0.10345476    -0.37600
C1015       C  0.30547239  0.02282501  0.94505359    -0.04200
C1016       C  0.31486179  0.98668645  0.94155208    -0.01400
C1017       C  0.33801399  0.97509120  0.90668284     0.03600
C1018       C  0.35143838  0.99940987  0.87446107    -0.04200
C1019       C  0.34424348  0.03583306  0.88014875    -0.01300
C1020       C  0.32128964  0.04738342  0.91485583     0.03600
C1021       C  0.29812910  0.96062156  0.97057297     0.38300
C1022       C  0.36037784  0.06180220  0.85004923     0.38300
C1023       C  0.31231031  0.08461427  0.91709407     0.36700
C1024       C  0.34614936  0.93777372  0.90229814     0.36700
N1025       N  0.30505958  0.11461549  0.41631277    -0.38100
N1026       N  0.35265848  0.90800798  0.89885107    -0.38100
N1027       N  0.37313076  0.08246486  0.82600133    -0.37600
N1028       N  0.28508171  0.93889063  0.99265332    -0.37600
C1029       C  0.28958383  0.03161423  0.55076613    -0.04200
C1030       C  0.29374850  0.00388964  0.58272732    -0.01400
C1031       C  0.32118039  0.00530571  0.61603631     0.03600
C1032       C  0.34454373  0.03466084  0.61799995    -0.04200
C1033       C  0.33785532  0.06383642  0.58903613    -0.01300
C1034       C  0.31016114  0.06252688  0.55650415     0.01200
C1035       C  0.26956301  0.97421297  0.58246654     0.38300
C1036       C  0.35869463  0.09591670  0.59362320     0.38300
C1037       C  0.30078641  0.09422229  0.53160479     0.36700
C1038       C  0.32586510  0.97598985  0.64739468     0.36700
N1039       N  0.29285258  0.12018957  0.51342327    -0.38100
N1040       N  0.32945871  0.95268980  0.67260138    -0.38100
N1041       N  0.37508812  0.12165787  0.59710237    -0.37600
N1042       N  0.25053174  0.95022395  0.58388419    -0.37600
C1043       C  0.85569067  0.00355190  0.88749226    -0.04200
C1044       C  0.84317502  0.97862794  0.91957552    -0.01400
C1045       C  0.80761102  0.98007240  0.93488210     0.03600
C1046       C  0.78526381  0.00835363  0.92157712    -0.04200
C1047       C  0.79739974  0.03196792  0.88762856    -0.01300
C1048       C  0.83144683  0.02820213  0.86883136     0.03600
C1049       C  0.86764695  0.95400618  0.94061917     0.38300
C1050       C  0.77709901  0.06296151  0.87517632     0.38300
C1051       C  0.84185843  0.05102386  0.83120761     0.36700
C1052       C  0.79532506  0.95441375  0.96799295     0.36700
N1053       N  0.85011416  0.06928020  0.80135472    -0.38100
N1054       N  0.78629303  0.93339172  0.49574820    -0.38100
N1055       N  0.76309796  0.08875340  0.86406024    -0.37600
N1056       N  0.88733171  0.93488714  0.95816196    -0.37600
C1057       C  0.64254119  0.00184006  0.61428777    -0.04200
C1058       C  0.67790097  0.98991851  0.61807112    -0.01400
C1059       C  0.70046065  0.99112823  0.57982105     0.03600
C1060       C  0.68872116  0.00605779  0.53804535    -0.04200
C1061       C  0.65279484  0.01528336  0.53315098    -0.01300
C1062       C  0.62958702  0.01214508  0.57058869     0.03600
C1063       C  0.69205057  0.97831898  0.66171321     0.38300
C1064       C  0.63941295  0.02962718  0.49062536     0.38300
C1065       C  0.59221145  0.01961659  0.56355479     0.36700
C1066       C  0.73663713  0.97858440  0.58421674     0.36700
N1067       N  0.56250127  0.02570034  0.55777909    -0.38100
N1068       N  0.76544288  0.96862034  0.58807329    -0.38100
N1069       N  0.62829535  0.04446953  0.95845026    -0.37600
N1070       N  0.70346584  0.96915675  0.69647928    -0.37600
C1071       C  0.70130673  0.99095304  0.93101950    -0.04200
C1072       C  0.68720666  0.95651230  0.93546784    -0.01400
C1073       C  0.66041283  0.94422495  0.90496397     0.03600
C1074       C  0.64855745  0.96566271  0.86819552    -0.04200
C1075       C  0.66449971  0.99939461  0.86250534    -0.01300
C1076       C  0.68829925  0.01271305  0.89560842     0.03600
C1077       C  0.69882873  0.93441749  0.97290585     0.38300
C1078       C  0.65548401  0.02167340  0.82381611     0.38300
C1079       C  0.69375411  0.05056044  0.89835911     0.36700
C1080       C  0.64542938  0.90926861  0.91112314     0.36700
N1081       N  0.69570639  0.08096777  0.90192629    -0.38100
N1082       N  0.63348400  0.88132922  0.91598939    -0.38100
N1083       N  0.64915634  0.03941653  0.79264500    -0.37600
N1084       N  0.70758798  0.91652651  0.00292471    -0.37600
C1085       C  0.99876866  0.20205802  0.95301551    -0.04200
C1086       C  0.02471225  0.19447171  0.91962903    -0.01400
C1087       C  0.01833526  0.16876703  0.88584609     0.03600
C1088       C  0.98487748  0.15202911  0.88258343    -0.04200
C1089       C  0.95948925  0.15823582  0.91701676    -0.01300
C1090       C  0.96655701  0.18288094  0.95230918     0.03600
C1091       C  0.05680993  0.21555932  0.91679183     0.38300
C1092       C  0.92507988  0.14115248  0.91451997     0.38300
C1093       C  0.93889264  0.19101631  0.98471025     0.36700
C1094       C  0.04654838  0.15973233  0.85432067     0.36700
N1095       N  0.91621198  0.20202222  0.50807185    -0.38100
N1096       N  0.06904031  0.15247556  0.82930418    -0.38100
N1097       N  0.89762739  0.12757631  0.91238162    -0.37600
N1098       N  0.08214893  0.23257967  0.91317782    -0.37600
C1099       C  0.00743577  0.22004188  0.55947776    -0.04200
C1100       C  0.98194147  0.21350875  0.59375801    -0.01400
C1101       C  0.98731267  0.18633731  0.62677746     0.03600
C1102       C  0.01827044  0.16508767  0.62588206    -0.04200
C1103       C  0.04510157  0.17406880  0.59425412    -0.01300
C1104       C  0.03977528  0.20129776  0.56171310     0.03600
C1105       C  0.94977659  0.23417405  0.59487171     0.38300
C1106       C  0.07906843  0.15621274  0.59626588     0.38300
C1107       C  0.06885282  0.21165003  0.53258266     0.36700
C1108       C  0.96038345  0.17983835  0.66090623     0.36700
N1109       N  0.09305505  0.21990803  0.51096169    -0.38100
N1110       N  0.93895528  0.17493706  0.68834088    -0.38100
N1111       N  0.10622958  0.14214702  0.59797193    -0.37600
N1112       N  0.92380710  0.25028825  0.59663751    -0.37600
C1113       C  0.99177075  0.30469036  0.56427522    -0.04200
C1114       C  0.96070714  0.32559200  0.56205079    -0.01400
C1115       C  0.95800886  0.35721423  0.58729719     0.03600
C1116       C  0.98660263  0.36881791  0.61501552    -0.04200
C1117       C  0.01633959  0.34610734  0.62035275    -0.01300
C1118       C  0.01876639  0.31423227  0.59517244     0.03600
C1119       C  0.93226262  0.31582910  0.53085639     0.38300
C1120       C  0.04469800  0.35525197  0.65178174     0.38300
C1121       C  0.04993202  0.29220766  0.59954588     0.36700
C1122       C  0.92633195  0.37853707  0.58222073     0.36700
N1123       N  0.07493431  0.27488179  0.60386441    -0.38100
N1124       N  0.90091459  0.39526806  0.57800406    -0.38100
N1125       N  0.06739099  0.36248580  0.67677188    -0.37600
N1126       N  0.90739333  0.30591680  0.00998252    -0.37600
C1127       C  0.03065825  0.86061089  0.62655843    -0.04200
C1128       C  0.02406196  0.82402674  0.63261183    -0.01400
C1129       C  0.02666335  0.80057277  0.59522532     0.03600
C1130       C  0.03733727  0.81292396  0.55159576    -0.04200
C1131       C  0.04207641  0.84954575  0.54503247    -0.01300
C1132       C  0.03693953  0.87329639  0.58163775     0.03600
C1133       C  0.01518478  0.80994894  0.67726596     0.38300
C1134       C  0.05427203  0.86323181  0.50168255     0.38300
C1135       C  0.03644635  0.91098735  0.57221183     0.36700
C1136       C  0.01958650  0.76318952  0.60230296     0.36700
N1137       N  0.03561995  0.94101614  0.56467877    -0.38100
N1138       N  0.01428183  0.73339124  0.60819888    -0.38100
N1139       N  0.06434632  0.87553273  0.46796653    -0.37600
N1140       N  0.00785674  0.79852414  0.71266787    -0.37600
C1141       C  0.01552873  0.80030781  0.94486556    -0.04200
C1142       C  0.98110242  0.81429252  0.94850381    -0.01400
C1143       C  0.96859767  0.83957919  0.91633927     0.03600
C1144       C  0.99064531  0.85166934  0.88033265    -0.04200
C1145       C  0.02488728  0.83667100  0.87623438    -0.01300
C1146       C  0.03759873  0.81255924  0.90931998     0.03600
C1147       C  0.95952982  0.80519279  0.48821493     0.38300
C1148       C  0.04823585  0.84727529  0.83942133     0.38300
C1149       C  0.07513254  0.80470644  0.91104857     0.36700
C1150       C  0.93255472  0.85230045  0.91964892     0.36700
N1151       N  0.10531128  0.79973871  0.91345413    -0.38100
N1152       N  0.90358682  0.86199151  0.92205879    -0.38100
N1153       N  0.06683971  0.85530987  0.80985925    -0.37600
N1154       N  0.94253385  0.79857518  0.51987988    -0.37600
C1155       C  0.02529332  0.71543919  0.93892105    -0.04200
C1156       C  0.04409372  0.70115003  0.90167568    -0.01400
C1157       C  0.03702643  0.66651385  0.88634599     0.03600
C1158       C  0.01141729  0.64528983  0.90849497    -0.04200
C1159       C  0.98957737  0.66090454  0.94186099    -0.01300
C1160       C  0.99665476  0.69578779  0.95725081     0.03600
C1161       C  0.07236171  0.72096725  0.88025214     0.38300
C1162       C  0.96133101  0.64041780  0.96244031     0.38300
C1163       C  0.97614541  0.70995634  0.49497950     0.36700
C1164       C  0.05663479  0.65258858  0.84772853     0.36700
N1165       N  0.95942308  0.72057789  0.52497991    -0.38100
N1166       N  0.07229301  0.64154070  0.81700701    -0.38100
N1167       N  0.93972442  0.62345890  0.47940082    -0.37600
N1168       N  0.09516639  0.73530467  0.86153151    -0.37600
loop_ 
_geom_bond_atom_site_label_1 
_geom_bond_atom_site_label_2 
_geom_bond_distance 
_geom_bond_site_symmetry_2 
_ccdc_geom_bond_type 
N1            C2   1.367       .  A
N1          C589   1.367       .  A
N1          C557   1.456       .  S
C2          C571   1.494       .  S
C2          C587   1.378       .  A
C3            C4   1.365   1_556  A
C3          C586   1.379       .  A
C3            H6   1.082       .  S
C4            C5   1.383       .  A
C4            H7   1.082       .  S
C5          N585   1.367   1_554  A
C5          C546   1.497       .  S
N8            C9   1.370       .  A
N8          C596   1.370   1_654  A
N8          C515   1.462   1_655  S
C9          C529   1.489       .  S
C9          C594   1.381   1_554  A
C10          C11   1.359       .  A
C10         C593   1.382   1_455  A
C10          H13   1.083   1_455  S
C11          C12   1.379       .  A
C11          H14   1.083       .  S
C12         N592   1.371       .  A
C12         C501   1.491   1_455  S
N15          C16   1.368       .  A
N15         C603   1.365       .  A
N15         C487   1.455   1_545  S
C16         C462   1.491       .  S
C16         C601   1.379       .  A
C17          C18   1.363   1_556  A
C17         C600   1.379       .  A
C17          H20   1.083       .  S
C18          C19   1.381       .  A
C18          H21   1.083       .  S
C19         N599   1.366   1_554  A
C19         C476   1.489       .  S
N22          C23   1.364       .  A
N22         C610   1.368   1_554  A
N22         C445   1.456       .  S
C23         C417   1.485       .  S
C23         C608   1.381   1_554  A
C24          C25   1.364       .  A
C24         C607   1.381       .  A
C24          H27   1.082       .  S
C25          C26   1.380       .  A
C25          H28   1.082       .  S
C26         N606   1.367       .  A
C26         C431   1.492       .  S
N29          C30   1.364       .  A
N29         C617   1.364       .  A
N29         C403   1.452       .  S
C30         C375   1.491       .  S
C30         C615   1.379       .  A
C31          C32   1.368   1_556  A
C31         C614   1.379       .  A
C31          H34   1.082       .  S
C32          C33   1.383       .  A
C32          H35   1.082       .  S
C33         N613   1.363   1_554  A
C33         C389   1.491       .  S
N36          C37   1.366       .  A
N36         C624   1.369   1_554  A
N36         C364   1.458       .  S
C37         C333   1.484       .  S
C37         C622   1.381   1_554  A
C38          C39   1.361       .  A
C38         C621   1.381       .  A
C38          H41   1.083       .  S
C39          C40   1.380       .  A
C39          H42   1.083       .  S
C40         N620   1.369       .  A
C40         C347   1.492       .  S
N43          C44   1.365       .  A
N43         C631   1.364       .  A
N43         C308   1.454       .  S
C44         C322   1.489       .  S
C44         C629   1.379       .  A
C45          C46   1.365       .  A
C45         C628   1.379       .  A
C45          H48   1.082       .  S
C46          C47   1.383       .  A
C46          H49   1.082       .  S
C47         N627   1.364       .  A
C47         C291   1.493       .  S
N50          C51   1.362       .  A
N50         C638   1.365       .  A
N50         C263   1.452       .  S
C51         C277   1.488       .  S
C51         C636   1.382       .  A
C52          C53   1.368       .  A
C52         C635   1.383   1_554  A
C52          H55   1.082       .  S
C53          C54   1.379       .  A
C53          H56   1.082       .  S
C54         N634   1.365   1_554  A
C54         C249   1.494       .  S
O57         Mg59   2.132       .  S
O57         Mg65   2.141       .  S
O57          C92   1.241       .  S
C58          H97   1.080       .  S
C58          O71   1.236       .  S
C58          O95   1.268       .  A
Mg59         O88   2.130       .  S
Mg59        O103   2.313       .  S
Mg59         O99   2.265       .  S
Mg59         O70   2.312       .  S
O60        Mg102   2.138       .  S
O60         Mg85   2.130       .  S
O60          C81   1.242       .  S
O61          C92   1.274       .  A
O61         Mg85   2.301       .  S
C62         C350   1.494       .  S
C62          O64   1.273       .  A
C62          O76   1.277       .  A
O63          C91   1.274       .  A
O63         Mg65   2.300       .  S
O64         Mg96   2.259       .  S
Mg65         O71   2.105       .  S
Mg65         O79   2.244       .  S
Mg65         O67   2.281       .  S
C66         C280   1.489       .  S
C66         O104   1.274       .  A
C66          O72   1.274       .  A
O67          C74   1.273       .  A
H68          C81   1.080       .  S
C69          H94   1.082       .  S
C69          O83   1.240       .  S
C69          O84   1.276       .  A
O70          C93   1.274       .  A
O71         Mg85   2.139       .  S
O72        Mg102   2.300       .  S
C73         C406   1.503       .  S
C73          O86   1.276       .  A
C73          O78   1.283       .  A
C74         C392   1.505       .  S
C74         O101   1.276       .  A
Mg75         O82   2.161       .  S
Mg75         O83   2.131       .  S
Mg75         O76   2.341       .  S
Mg75         O77   2.308       .  S
Mg75        O104   2.274       .  S
O77          C81   1.276       .  A
O78         Mg85   2.349       .  S
O79          C98   1.269       .  A
O80         C100   1.285       .  A
O80         Mg96   2.388       .  S
O82         Mg96   2.128       .  S
O82          C93   1.239       .  S
O83        Mg102   2.151       .  S
O84         Mg96   2.327       .  S
Mg85        O101   2.288       .  S
O86        Mg102   2.283       .  S
H87          C92   1.082       .  S
O88         Mg96   2.119       .  S
O88          C91   1.241       .  S
H89          C91   1.080       .  S
H90          C93   1.080       .  S
O95        Mg102   2.285       .  S
C98         C319   1.493       .  S
C98         O103   1.276       .  A
O99         C100   1.273       .  A
C100        C361   1.510       .  S
O105       Mg107   2.126       .  S
O105       Mg113   2.148       .  S
O105        C140   1.241   1_545  S
C106        H145   1.079       .  S
C106        O119   1.238       .  S
C106        O143   1.271       .  A
Mg107       O136   2.133       .  S
Mg107       O151   2.314       .  S
Mg107       O147   2.266       .  S
Mg107       O118   2.306   1_545  S
O108       Mg150   2.131       .  S
O108       Mg133   2.120       .  S
O108        C129   1.241       .  S
O109        C140   1.274       .  A
O109       Mg133   2.300       .  S
C110        C434   1.491       .  S
C110        O112   1.271   1_565  A
C110        O124   1.275       .  A
O111        C139   1.272       .  A
O111       Mg113   2.292       .  S
O112       Mg144   2.252       .  S
Mg113       O119   2.111       .  S
Mg113       O127   2.239       .  S
Mg113       O115   2.266       .  S
C114        C378   1.495       .  S
C114        O152   1.272       .  A
C114        O120   1.279       .  A
O115        C122   1.270       .  A
H116        C129   1.082       .  S
C117        H142   1.080       .  S
C117        O131   1.241   1_545  S
C117        O132   1.277       .  A
O118        C141   1.272       .  A
O119       Mg133   2.146   1_545  S
O120       Mg150   2.345       .  S
C121        C490   1.509       .  S
C121        O134   1.279       .  A
C121        O126   1.279       .  A
C122        C473   1.498       .  S
C122        O149   1.273   1_545  A
Mg123       O130   2.145       .  S
Mg123       O131   2.116       .  S
Mg123       O124   2.325       .  S
Mg123       O125   2.307       .  S
Mg123       O152   2.245       .  S
O125        C129   1.275       .  A
O126       Mg133   2.331       .  S
O127        C146   1.269       .  A
O128        C148   1.282       .  A
O128       Mg144   2.358       .  S
O130       Mg144   2.119   1_565  S
O130        C141   1.238       .  S
O131       Mg150   2.152       .  S
O132       Mg144   2.327       .  S
Mg133       O149   2.277       .  S
O134       Mg150   2.305       .  S
H135        C140   1.080       .  S
O136       Mg144   2.113       .  S
O136        C139   1.239       .  S
H137        C139   1.082       .  S
H138        C141   1.079       .  S
O143       Mg150   2.293   1_545  S
C146        C336   1.491       .  S
C146        O151   1.277       .  A
O147        C148   1.274       .  A
C148        C448   1.502       .  S
O153       Mg155   2.145   1_565  S
O153       Mg161   2.141       .  S
O153        C188   1.240   1_455  S
C154        H193   1.080       .  S
C154        O167   1.239       .  S
C154        O191   1.273       .  A
Mg155       O184   2.129       .  S
Mg155       O199   2.329       .  S
Mg155       O195   2.284       .  S
Mg155       O166   2.307   1_455  S
O156       Mg198   2.125       .  S
O156       Mg181   2.120       .  S
O156        C177   1.242       .  S
O157        C188   1.274       .  A
O157       Mg181   2.307       .  S
C158        C504   1.494       .  S
C158        O160   1.272       .  A
C158        O172   1.274       .  A
O159        C187   1.274       .  A
O159       Mg161   2.301   1_545  S
O160       Mg192   2.257   1_655  S
Mg161       O167   2.137       .  S
Mg161       O175   2.265       .  S
Mg161       O163   2.310       .  S
C162        C459   1.497       .  S
C162        O200   1.270       .  A
C162        O168   1.277   1_545  A
O163        C170   1.277       .  A
H164        C177   1.079       .  S
C165        H190   1.081       .  S
C165        O179   1.241   1_455  S
C165        O180   1.277       .  A
O166        C189   1.272       .  A
O167       Mg181   2.146   1_455  S
O168       Mg198   2.345       .  S
C169        C560   1.513       .  S
C169        O182   1.277       .  A
C169        O174   1.283       .  A
C170        C543   1.503       .  S
C170        O197   1.274       .  A
Mg171       O178   2.150       .  S
Mg171       O179   2.110       .  S
Mg171       O172   2.319       .  S
Mg171       O173   2.313       .  S
Mg171       O200   2.247       .  S
O173        C177   1.276   1_545  A
O174       Mg181   2.358       .  S
O175        C194   1.273   1_565  A
O176        C196   1.283       .  A
O176       Mg192   2.376       .  S
O178       Mg192   2.124   1_655  S
O178        C189   1.238       .  S
O179       Mg198   2.158   1_545  S
O180       Mg192   2.331       .  S
Mg181       O197   2.273   1_655  S
O182       Mg198   2.296       .  S
H183        C188   1.081       .  S
O184       Mg192   2.121       .  S
O184        C187   1.241       .  S
H185        C187   1.079       .  S
H186        C189   1.080       .  S
O191       Mg198   2.302   1_455  S
C194        C420   1.493       .  S
C194        O199   1.278       .  A
O195        C196   1.276       .  A
C196        C518   1.512       .  S
O201       Mg203   2.139   1_655  S
O201       Mg209   2.141       .  S
O201        C236   1.240       .  S
C202        H241   1.079       .  S
C202        O215   1.240       .  S
C202        O239   1.275       .  A
Mg203       O232   2.130       .  S
Mg203       O247   2.314       .  S
Mg203       O243   2.273       .  S
Mg203       O214   2.300       .  S
O204       Mg246   2.118       .  S
O204       Mg229   2.126       .  S
O204        C225   1.241       .  S
O205        C236   1.274       .  A
O205       Mg229   2.311       .  S
C206        C294   1.483       .  S
C206        O208   1.272       .  A
C206        O220   1.275       .  A
O207        C235   1.273   1_655  A
O207       Mg209   2.297       .  S
O208       Mg240   2.256       .  S
Mg209       O215   2.148       .  S
Mg209       O223   2.270       .  S
Mg209       O211   2.339       .  S
C210        C574   1.495       .  S
C210        O248   1.271       .  A
C210        O216   1.275   1_455  A
O211        C218   1.279       .  A
H212        C225   1.080       .  S
C213        H238   1.081       .  S
C213        O227   1.240       .  S
C213        O228   1.276       .  A
O214        C237   1.272       .  A
O215       Mg229   2.127       .  S
O216       Mg246   2.334       .  S
C217        C266   1.495       .  S
C217        O230   1.271       .  A
C217        O222   1.282       .  A
C218        C252   1.493       .  S
C218        O245   1.274       .  A
Mg219       O226   2.135       .  S
Mg219       O227   2.115       .  S
Mg219       O220   2.319       .  S
Mg219       O221   2.316       .  S
Mg219       O248   2.258       .  S
O221        C225   1.276   1_455  A
O222       Mg229   2.366       .  S
O223        C242   1.275       .  A
O224        C244   1.281       .  A
O224       Mg240   2.360       .  S
O226       Mg240   2.128       .  S
O226        C237   1.238       .  S
O227       Mg246   2.139   1_455  S
O228       Mg240   2.316       .  S
Mg229       O245   2.261       .  S
O230       Mg246   2.252       .  S
H231        C236   1.082       .  S
O232       Mg240   2.120       .  S
O232        C235   1.241       .  S
H233        C235   1.081       .  S
H234        C237   1.079       .  S
O239       Mg246   2.313       .  S
C242        C532   1.505       .  S
C242        O247   1.277   1_655  A
O243        C244   1.274       .  A
C244        C305   1.492       .  S
C249        C250   1.414       .  A
C249        C254   1.418       .  A
C250        C251   1.411       .  A
C250        C255   1.449       .  S
C251        C252   1.415       .  A
C251        C258   1.453       .  S
C252        C253   1.410       .  A
C253        C254   1.417       .  A
C253        C256   1.450       .  S
C254        C257   1.447       .  S
C255        N262   1.157       .  T
C256        N261   1.157       .  T
C257        N843   1.156       .  T
C258        N260   1.157       .  T
N259        C841   1.156       .  T
C263        C264   1.413       .  A
C263        C268   1.410       .  A
C264        C265   1.412       .  A
C264        C269   1.448       .  S
C265        C266   1.413       .  A
C265        C272   1.451       .  S
C266        C267   1.417       .  A
C267        C268   1.419       .  A
C267        C270   1.450       .  S
C268        C271   1.446       .  S
C269        N860   1.157       .  T
C270        N275   1.157       .  T
C271        N273   1.157       .  T
C272        N274   1.157       .  T
N276        C853   1.157       .  T
C277        C278   1.417       .  A
C277        C282   1.410       .  A
C278        C279   1.409       .  A
C278        C867   1.452       .  S
C279        C280   1.411       .  A
C279        C286   1.452       .  S
C280        C281   1.417       .  A
C281        C282   1.414       .  A
C281        C284   1.451       .  S
C282        C285   1.449       .  S
C283        C862   1.452   1_554  S
C283        N290   1.157       .  T
C284        N289   1.157       .  T
C285        N287   1.157       .  T
C286        N288   1.157       .  T
C291        C292   1.420       .  A
C291        C296   1.412       .  A
C292        C293   1.408       .  A
C292        C297   1.452       .  S
C293        C294   1.406       .  A
C293        C300   1.452       .  S
C294        C295   1.415       .  A
C295        C296   1.415       .  A
C295        C298   1.451       .  S
C296        C299   1.449       .  S
C297        N304   1.157       .  T
C298        N303   1.157       .  T
C299        N885   1.157       .  T
C300        N302   1.157       .  T
N301        C883   1.157       .  T
C305        C306   1.415       .  A
C305        C310   1.408       .  A
C306        C307   1.419       .  A
C306        C311   1.450       .  S
C307        C308   1.412       .  A
C307        C314   1.446       .  S
C308        C309   1.419       .  A
C309        C310   1.413       .  A
C309        C312   1.449       .  S
C310        C313   1.450       .  S
C311        N318   1.157       .  T
C312        N901   1.157       .  T
C313        N315   1.157       .  T
C314        N316   1.157       .  T
N317        C896   1.157       .  T
C319        C320   1.416       .  A
C319        C324   1.415       .  A
C320        C321   1.411       .  A
C320        C325   1.452       .  S
C321        C322   1.411       .  A
C321        C328   1.449       .  S
C322        C323   1.415       .  A
C323        C324   1.413       .  A
C323        C326   1.448       .  S
C324        C327   1.453       .  S
C325        N332   1.157       .  T
C326        N915   1.157       .  T
C327        N329   1.157       .  T
C328        N330   1.157       .  T
N331        C910   1.157       .  T
C333        C334   1.416       .  A
C333        C338   1.409       .  A
C334        C335   1.408       .  A
C334        C339   1.454       .  S
C335        C336   1.416       .  A
C335        C342   1.452       .  S
C336        C337   1.417       .  A
C337        C338   1.412       .  A
C337        C340   1.452       .  S
C338        C341   1.448       .  S
C339        N346   1.157   1_554  T
C340        N345   1.157       .  T
C341        N343   1.157       .  T
C342        N344   1.157       .  T
C347        C348   1.416       .  A
C347        C352   1.416       .  A
C348        C349   1.408       .  A
C348        C353   1.452       .  S
C349        C350   1.415       .  A
C349        C356   1.454       .  S
C350        C351   1.412       .  A
C351        C352   1.419       .  A
C351        C354   1.450       .  S
C352        C355   1.448       .  S
C353        N360   1.157       .  T
C354        N359   1.157       .  T
C355        N357   1.157       .  T
C356        N358   1.157       .  T
C361        C362   1.417       .  A
C361        C366   1.418       .  A
C362        C363   1.422       .  A
C362        C367   1.449       .  S
C363        C364   1.414       .  A
C363        C370   1.445       .  S
C364        C365   1.412       .  A
C365        C366   1.416       .  A
C365        C368   1.447       .  S
C366        C369   1.451       .  S
C367        N374   1.157       .  T
C368        N373   1.157       .  T
C369        N371   1.157       .  T
C370        N372   1.157       .  T
C375        C376   1.412       .  A
C375        C380   1.417       .  A
C376        C377   1.410       .  A
C376        C381   1.449       .  S
C377        C378   1.417       .  A
C377        C384   1.454       .  S
C378        C379   1.411       .  A
C379        C380   1.416       .  A
C379        C382   1.451       .  S
C380        C967   1.448       .  S
C381        N388   1.157       .  T
C382        N387   1.157       .  T
C383        C964   1.448       .  S
C383        N385   1.156   1_556  T
C384        N386   1.157       .  T
C389        C390   1.408       .  A
C389        C394   1.417       .  A
C390        C391   1.413       .  A
C390        C395   1.449   1_554  S
C391        C392   1.425       .  A
C391        C398   1.453       .  S
C392        C393   1.417       .  A
C393        C394   1.412       .  A
C393        C396   1.451       .  S
C394        C397   1.453       .  S
C395        N986   1.157       .  T
C396        N401   1.157       .  T
C397        N399   1.157       .  T
C398        N400   1.158       .  T
N402        C979   1.157       .  T
C403        C404   1.409       .  A
C403        C408   1.412       .  A
C404        C405   1.421       .  A
C404        C409   1.446       .  S
C405        C406   1.420       .  A
C405        C412   1.450       .  S
C406        C407   1.417       .  A
C407        C408   1.412       .  A
C407        C410   1.452       .  S
C408        C411   1.449       .  S
C409        N416   1.157       .  T
C410        N415   1.157       .  T
C411        N997   1.157       .  T
C412        N414   1.157       .  T
N413        C995   1.157       .  T
C417        C418   1.408       .  A
C417        C422   1.414   1_545  A
C418        C419   1.416       .  A
C418        C423   1.449       .  S
C419        C420   1.419       .  A
C419        C426   1.450       .  S
C420        C421   1.414   1_545  A
C421        C422   1.408       .  A
C421        C424   1.451       .  S
C422        C425   1.454       .  S
C423       N1014   1.157       .  T
C424        N429   1.157       .  T
C425        N427   1.157   1_554  T
C426        N428   1.157       .  T
N430       C1007   1.157       .  T
C431        C432   1.417   1_545  A
C431        C436   1.415       .  A
C432        C433   1.417       .  A
C432        C437   1.448       .  S
C433        C434   1.412       .  A
C433        C440   1.451       .  S
C434        C435   1.415   1_565  A
C435        C436   1.409       .  A
C435        C438   1.454       .  S
C436        C439   1.451       .  S
C437        N444   1.156       .  T
C438        N443   1.158       .  T
C439       N1025   1.157       .  T
C440        N442   1.157       .  T
N441       C1023   1.157       .  T
C445        C446   1.414       .  A
C445        C450   1.412       .  A
C446        C447   1.421       .  A
C446        C451   1.446   1_545  S
C447        C448   1.418       .  A
C447        C454   1.451   1_545  S
C448        C449   1.414       .  A
C449        C450   1.412       .  A
C449        C452   1.451       .  S
C450        C453   1.447       .  S
C451        N458   1.157       .  T
C452        N457   1.157       .  T
C453        N455   1.157       .  T
C454        N456   1.157       .  T
C459        C460   1.412   1_545  A
C459        C464   1.416       .  A
C460        C461   1.418       .  A
C460        C465   1.449       .  S
C461        C462   1.417   1_565  A
C461        C468   1.449       .  S
C462        C463   1.413       .  A
C463        C464   1.409       .  A
C463        C466   1.448       .  S
C464        C467   1.455       .  S
C465        N472   1.157       .  T
C466        N471   1.157       .  T
C467        N469   1.157       .  T
C468       N1054   1.157       .  T
N470       C1052   1.157       .  T
C473        C474   1.415   1_545  A
C473        C478   1.423       .  A
C474        C475   1.412       .  A
C474        C479   1.452       .  S
C475        C476   1.418   1_565  A
C475        C482   1.453       .  S
C476        C477   1.408       .  A
C477        C478   1.411       .  A
C477        C480   1.448   1_554  S
C478        C481   1.454       .  S
C479        N486   1.158       .  T
C480       N1069   1.157       .  T
C481        N483   1.158       .  T
C482        N484   1.157       .  T
N485       C1064   1.157       .  T
C487        C488   1.412       .  A
C487        C492   1.411   1_565  A
C488        C489   1.423       .  A
C488        C493   1.446       .  S
C489        C490   1.419       .  A
C489        C496   1.449       .  S
C490        C491   1.420       .  A
C491        C492   1.411   1_565  A
C491        C494   1.452   1_565  S
C492        C495   1.449       .  S
C493        N500   1.157       .  T
C494        N499   1.158       .  T
C495        N497   1.157       .  T
C496        N498   1.157       .  T
C501        C502   1.417   1_655  A
C501        C506   1.416       .  A
C502        C503   1.407       .  A
C502        C507   1.452       .  S
C503        C504   1.415   1_455  A
C503        C510   1.454       .  S
C504        C505   1.415       .  A
C505        C506   1.418       .  A
C505        C508   1.451       .  S
C506        C509   1.449       .  S
C507        N514   1.157       .  T
C508        N513   1.158       .  T
C509       N1095   1.157       .  T
C510        N512   1.158       .  T
N511       C1093   1.157   1_554  T
C515        C516   1.416   1_455  A
C515        C520   1.415       .  A
C516        C517   1.424       .  A
C516        C521   1.446       .  S
C517        C518   1.419   1_655  A
C517        C524   1.450       .  S
C518        C519   1.415       .  A
C519        C520   1.417       .  A
C519        C522   1.452       .  S
C520        C523   1.446       .  S
C521        N528   1.157       .  T
C522        N527   1.157       .  T
C523        N525   1.156       .  T
C524        N526   1.157       .  T
C529        C530   1.417       .  A
C529        C534   1.407   1_655  A
C530        C531   1.410       .  A
C530        C535   1.455       .  S
C531        C532   1.418       .  A
C531        C538   1.451       .  S
C532        C533   1.424   1_655  A
C533        C534   1.417       .  A
C533        C536   1.451       .  S
C534        C537   1.449       .  S
C535       N1126   1.157       .  T
C536        N541   1.157       .  T
C537        N539   1.157       .  T
C538        N540   1.157       .  T
N542       C1119   1.157       .  T
C543        C544   1.416       .  A
C543        C548   1.421       .  A
C544        C545   1.414       .  A
C544        C549   1.452       .  S
C545        C546   1.420       .  A
C545        C552   1.453       .  S
C546        C547   1.410       .  A
C547        C548   1.413       .  A
C547        C550   1.448       .  S
C548        C551   1.452       .  S
C549        N556   1.158       .  T
C550        N555   1.157   1_554  T
C551        N553   1.157       .  T
C552        N554   1.157       .  T
C557        C558   1.409   1_455  A
C557        C562   1.413       .  A
C558        C559   1.423       .  A
C558       C1147   1.447       .  S
C559        C560   1.422       .  A
C559        C566   1.448       .  S
C560        C561   1.419   1_655  A
C561        C562   1.414       .  A
C561        C564   1.451       .  S
C562        C565   1.449       .  S
C563       C1142   1.447       .  S
C563        N570   1.157   1_556  T
C564        N569   1.157       .  T
C565        N567   1.157       .  T
C566        N568   1.157       .  T
C571        C572   1.412       .  A
C571        C576   1.418   1_455  A
C572        C573   1.410       .  A
C572        C577   1.448       .  S
C573        C574   1.415       .  A
C573        C580   1.454       .  S
C574        C575   1.413   1_455  A
C575        C576   1.419       .  A
C575        C578   1.450       .  S
C576       C1163   1.449       .  S
C577        N584   1.157       .  T
C578       N1167   1.157       .  T
C579       C1160   1.448       .  S
C579        N581   1.157   1_556  T
C580        N582   1.157       .  T
N583       C1162   1.157       .  T
N585        C586   1.367       .  A
N585       C1141   1.455       .  S
C586       C1155   1.494       .  S
C587        C588   1.365       .  A
C587        H590   1.082       .  S
C588        C589   1.383       .  A
C588        H591   1.083       .  S
C589       C1130   1.497       .  S
N592        C593   1.370   1_455  A
N592       C1099   1.463       .  S
C593       C1113   1.491       .  S
C594        C595   1.358       .  A
C594        H597   1.083       .  S
C595        C596   1.379   1_655  A
C595        H598   1.083       .  S
C596       C1085   1.490   1_455  S
N599        C600   1.369       .  A
N599       C1071   1.457   1_545  S
C600       C1046   1.491       .  S
C601        C602   1.364       .  A
C601        H604   1.083       .  S
C602        C603   1.382       .  A
C602        H605   1.083       .  S
C603       C1060   1.490       .  S
N606        C607   1.363       .  A
N606       C1029   1.456       .  S
C607       C1001   1.483       .  S
C608        C609   1.364       .  A
C608        H611   1.082       .  S
C609        C610   1.380       .  A
C609        H612   1.082       .  S
C610       C1015   1.494       .  S
N613        C614   1.363       .  A
N613        C987   1.452       .  S
C614        C959   1.490       .  S
C615        C616   1.368       .  A
C615        H618   1.082       .  S
C616        C617   1.383       .  A
C616        H619   1.082       .  S
C617        C973   1.493       .  S
N620        C621   1.365       .  A
N620        C948   1.458       .  S
C621        C917   1.483       .  S
C622        C623   1.361       .  A
C622        H625   1.083       .  S
C623        C624   1.380       .  A
C623        H626   1.083       .  S
C624        C931   1.492       .  S
N627        C628   1.366       .  A
N627        C892   1.455       .  S
C628        C906   1.490       .  S
C629        C630   1.365   1_554  A
C629        H632   1.082       .  S
C630        C631   1.383   1_556  A
C630        H633   1.082       .  S
C631        C875   1.493   1_554  S
N634        C635   1.363       .  A
N634        C847   1.452       .  S
C635        C861   1.489       .  S
C636        C637   1.368       .  A
C636        H639   1.082       .  S
C637        C638   1.379       .  A
C637        H640   1.082       .  S
C638        C833   1.493       .  S
O641       Mg643   2.132       .  S
O641       Mg649   2.140       .  S
O641        C676   1.241       .  S
C642        H681   1.080       .  S
C642        O655   1.236       .  S
C642        O679   1.268       .  A
Mg643       O672   2.130       .  S
Mg643       O687   2.317       .  S
Mg643       O683   2.265       .  S
Mg643       O654   2.313       .  S
O644       Mg686   2.138       .  S
O644       Mg669   2.130       .  S
O644        C665   1.242       .  S
O645        C676   1.274       .  A
O645       Mg669   2.301       .  S
C646        C934   1.495       .  S
C646        O648   1.274       .  A
C646        O660   1.277       .  A
O647        C675   1.274       .  A
O647       Mg649   2.301       .  S
O648       Mg680   2.263       .  S
Mg649       O655   2.103       .  S
Mg649       O663   2.244       .  S
Mg649       O651   2.283       .  S
C650        C864   1.488       .  S
C650        O688   1.274       .  A
C650        O656   1.274       .  A
O651        C658   1.273       .  A
H652        C665   1.080       .  S
C653        H678   1.082       .  S
C653        O667   1.239       .  S
C653        O668   1.275       .  A
O654        C677   1.274       .  A
O655       Mg669   2.138       .  S
O656       Mg686   2.301       .  S
C657        C990   1.503       .  S
C657        O670   1.275       .  A
C657        O662   1.283       .  A
C658        C976   1.507       .  S
C658        O685   1.276       .  A
Mg659       O666   2.161       .  S
Mg659       O667   2.129       .  S
Mg659       O660   2.342       .  S
Mg659       O661   2.308       .  S
Mg659       O688   2.272       .  S
O661        C665   1.276       .  A
O662       Mg669   2.352       .  S
O663        C682   1.269       .  A
O664        C684   1.285       .  A
O664       Mg680   2.390       .  S
O666       Mg680   2.127       .  S
O666        C677   1.239       .  S
O667       Mg686   2.149       .  S
O668       Mg680   2.326       .  S
Mg669       O685   2.290       .  S
O670       Mg686   2.279       .  S
H671        C676   1.082       .  S
O672       Mg680   2.121       .  S
O672        C675   1.241       .  S
H673        C675   1.080       .  S
H674        C677   1.080       .  S
O679       Mg686   2.284       .  S
C682        C903   1.494       .  S
C682        O687   1.277       .  A
O683        C684   1.273       .  A
C684        C945   1.509       .  S
O689       Mg691   2.129       .  S
O689       Mg697   2.148       .  S
O689        C724   1.241   1_545  S
C690        H729   1.079       .  S
C690        O703   1.238       .  S
C690        O727   1.270       .  A
Mg691       O720   2.133       .  S
Mg691       O735   2.316       .  S
Mg691       O731   2.268       .  S
Mg691       O702   2.307   1_545  S
O692       Mg734   2.131       .  S
O692       Mg717   2.116       .  S
O692        C713   1.242       .  S
O693        C724   1.274       .  A
O693       Mg717   2.301       .  S
C694       C1018   1.492       .  S
C694        O696   1.272   1_565  A
C694        O708   1.274       .  A
O695        C723   1.272       .  A
O695       Mg697   2.293       .  S
O696       Mg728   2.257       .  S
Mg697       O703   2.110       .  S
Mg697       O711   2.237       .  S
Mg697       O699   2.266       .  S
C698        C962   1.494       .  S
C698        O736   1.271       .  A
C698        O704   1.279       .  A
O699        C706   1.270       .  A
H700        C713   1.082       .  S
C701        H726   1.080       .  S
C701        O715   1.241   1_545  S
C701        O716   1.277       .  A
O702        C725   1.272       .  A
O703       Mg717   2.145   1_545  S
O704       Mg734   2.341       .  S
C705       C1074   1.511       .  S
C705        O718   1.280       .  A
C705        O710   1.280       .  A
C706       C1057   1.497       .  S
C706        O733   1.273   1_545  A
Mg707       O714   2.145       .  S
Mg707       O715   2.116       .  S
Mg707       O708   2.321       .  S
Mg707       O709   2.307       .  S
Mg707       O736   2.240       .  S
O709        C713   1.275       .  A
O710       Mg717   2.335       .  S
O711        C730   1.269       .  A
O712        C732   1.283       .  A
O712       Mg728   2.364       .  S
O714       Mg728   2.120   1_565  S
O714        C725   1.238       .  S
O715       Mg734   2.157       .  S
O716       Mg728   2.329       .  S
Mg717       O733   2.274       .  S
O718       Mg734   2.311       .  S
H719        C724   1.081       .  S
O720       Mg728   2.113       .  S
O720        C723   1.239       .  S
H721        C723   1.082       .  S
H722        C725   1.079       .  S
O727       Mg734   2.292   1_545  S
C730        C920   1.491       .  S
C730        O735   1.277       .  A
O731        C732   1.275       .  A
C732       C1032   1.503       .  S
O737       Mg739   2.146   1_565  S
O737       Mg745   2.144       .  S
O737        C772   1.240   1_455  S
C738        H777   1.080       .  S
C738        O751   1.239       .  S
C738        O775   1.272       .  A
Mg739       O768   2.130       .  S
Mg739       O783   2.325       .  S
Mg739       O779   2.290       .  S
Mg739       O750   2.305   1_455  S
O740       Mg782   2.125       .  S
O740       Mg765   2.115       .  S
O740        C761   1.242       .  S
O741        C772   1.274       .  A
O741       Mg765   2.308       .  S
C742       C1088   1.492       .  S
C742        O744   1.271       .  A
C742        O756   1.273       .  A
O743        C771   1.274       .  A
O743       Mg745   2.300   1_545  S
O744       Mg776   2.255   1_655  S
Mg745       O751   2.138       .  S
Mg745       O759   2.261       .  S
Mg745       O747   2.306       .  S
C746       C1043   1.498       .  S
C746        O784   1.270       .  A
C746        O752   1.277   1_545  A
O747        C754   1.276       .  A
H748        C761   1.079       .  S
C749        H774   1.081       .  S
C749        O763   1.241   1_455  S
C749        O764   1.278       .  A
O750        C773   1.272       .  A
O751       Mg765   2.148   1_455  S
O752       Mg782   2.344       .  S
C753       C1144   1.512       .  S
C753        O766   1.277       .  A
C753        O758   1.282       .  A
C754       C1127   1.503       .  S
C754        O781   1.273       .  A
Mg755       O762   2.152       .  S
Mg755       O763   2.109       .  S
Mg755       O756   2.310       .  S
Mg755       O757   2.312       .  S
Mg755       O784   2.250       .  S
O757        C761   1.276   1_545  A
O758       Mg765   2.354       .  S
O759        C778   1.273   1_565  A
O760        C780   1.284       .  A
O760       Mg776   2.378       .  S
O762       Mg776   2.127   1_655  S
O762        C773   1.237       .  S
O763       Mg782   2.158   1_545  S
O764       Mg776   2.332       .  S
Mg765       O781   2.267   1_655  S
O766       Mg782   2.296       .  S
H767        C772   1.081       .  S
O768       Mg776   2.118       .  S
O768        C771   1.241       .  S
H769        C771   1.079       .  S
H770        C773   1.080       .  S
O775       Mg782   2.302   1_455  S
C778       C1004   1.492       .  S
C778        O783   1.278       .  A
O779        C780   1.277       .  A
C780       C1102   1.515       .  S
O785       Mg787   2.138   1_655  S
O785       Mg793   2.139       .  S
O785        C820   1.240       .  S
C786        H825   1.079       .  S
C786        O799   1.240       .  S
C786        O823   1.275       .  A
Mg787       O816   2.130       .  S
Mg787       O831   2.319       .  S
Mg787       O827   2.269       .  S
Mg787       O798   2.300       .  S
O788       Mg830   2.117       .  S
O788       Mg813   2.124       .  S
O788        C809   1.241       .  S
O789        C820   1.274       .  A
O789       Mg813   2.312       .  S
C790        C878   1.483       .  S
C790        O792   1.273       .  A
C790        O804   1.275       .  A
O791        C819   1.274   1_655  A
O791       Mg793   2.298       .  S
O792       Mg824   2.261       .  S
Mg793       O799   2.145       .  S
Mg793       O807   2.269       .  S
Mg793       O795   2.337       .  S
C794       C1158   1.494       .  S
C794        O832   1.270       .  A
C794        O800   1.274   1_455  A
O795        C802   1.278       .  A
H796        C809   1.080       .  S
C797        H822   1.081       .  S
C797        O811   1.240       .  S
C797        O812   1.275       .  A
O798        C821   1.272       .  A
O799       Mg813   2.127       .  S
O800       Mg830   2.333       .  S
C801        C850   1.496       .  S
C801        O814   1.271       .  A
C801        O806   1.281       .  A
C802        C836   1.491       .  S
C802        O829   1.273       .  A
Mg803       O810   2.132       .  S
Mg803       O811   2.114       .  S
Mg803       O804   2.319       .  S
Mg803       O805   2.316       .  S
Mg803       O832   2.255       .  S
O805        C809   1.276   1_455  A
O806       Mg813   2.365       .  S
O807        C826   1.274       .  A
O808        C828   1.281       .  A
O808       Mg824   2.360       .  S
O810       Mg824   2.128       .  S
O810        C821   1.239       .  S
O811       Mg830   2.139   1_455  S
O812       Mg824   2.315       .  S
Mg813       O829   2.257       .  S
O814       Mg830   2.253       .  S
H815        C820   1.082       .  S
O816       Mg824   2.121       .  S
O816        C819   1.241       .  S
H817        C819   1.080       .  S
H818        C821   1.079       .  S
O823       Mg830   2.313       .  S
C826       C1116   1.504       .  S
C826        O831   1.277   1_655  A
O827        C828   1.274       .  A
C828        C889   1.491       .  S
C833        C834   1.414       .  A
C833        C838   1.417       .  A
C834        C835   1.411       .  A
C834        C839   1.450       .  S
C835        C836   1.415       .  A
C835        C842   1.453       .  S
C836        C837   1.410       .  A
C837        C838   1.416       .  A
C837        C840   1.450       .  S
C838        C841   1.447       .  S
C839        N846   1.157       .  T
C840        N845   1.157       .  T
C842        N844   1.157       .  T
C847        C848   1.413       .  A
C847        C852   1.410       .  A
C848        C849   1.412       .  A
C848        C853   1.448       .  S
C849        C850   1.413       .  A
C849        C856   1.451       .  S
C850        C851   1.417       .  A
C851        C852   1.419       .  A
C851        C854   1.450       .  S
C852        C855   1.446       .  S
C854        N859   1.157       .  T
C855        N857   1.157       .  T
C856        N858   1.157       .  T
C861        C862   1.418       .  A
C861        C866   1.410       .  A
C862        C863   1.409       .  A
C863        C864   1.410       .  A
C863        C870   1.452       .  S
C864        C865   1.417       .  A
C865        C866   1.415       .  A
C865        C868   1.451       .  S
C866        C869   1.449       .  S
C867        N874   1.157       .  T
C868        N873   1.157       .  T
C869        N871   1.157       .  T
C870        N872   1.157       .  T
C875        C876   1.421       .  A
C875        C880   1.413       .  A
C876        C877   1.408       .  A
C876        C881   1.452       .  S
C877        C878   1.406       .  A
C877        C884   1.452       .  S
C878        C879   1.416       .  A
C879        C880   1.416       .  A
C879        C882   1.451       .  S
C880        C883   1.449   1_556  S
C881        N888   1.157       .  T
C882        N887   1.157       .  T
C884        N886   1.157       .  T
C889        C890   1.415       .  A
C889        C894   1.407       .  A
C890        C891   1.420       .  A
C890        C895   1.451       .  S
C891        C892   1.413       .  A
C891        C898   1.446       .  S
C892        C893   1.419       .  A
C893        C894   1.413       .  A
C893        C896   1.448       .  S
C894        C897   1.450       .  S
C895        N902   1.157       .  T
C897        N899   1.157       .  T
C898        N900   1.157       .  T
C903        C904   1.416       .  A
C903        C908   1.415       .  A
C904        C905   1.411       .  A
C904        C909   1.452       .  S
C905        C906   1.412       .  A
C905        C912   1.449       .  S
C906        C907   1.415       .  A
C907        C908   1.414       .  A
C907        C910   1.449       .  S
C908        C911   1.452       .  S
C909        N916   1.157       .  T
C911        N913   1.157       .  T
C912        N914   1.157       .  T
C917        C918   1.416       .  A
C917        C922   1.410       .  A
C918        C919   1.408       .  A
C918        C923   1.454       .  S
C919        C920   1.416       .  A
C919        C926   1.452       .  S
C920        C921   1.416       .  A
C921        C922   1.412       .  A
C921        C924   1.452       .  S
C922        C925   1.448       .  S
C923        N930   1.157       .  T
C924        N929   1.157       .  T
C925        N927   1.157       .  T
C926        N928   1.157       .  T
C931        C932   1.415       .  A
C931        C936   1.417       .  A
C932        C933   1.408       .  A
C932        C937   1.452       .  S
C933        C934   1.415       .  A
C933        C940   1.453       .  S
C934        C935   1.413       .  A
C935        C936   1.420       .  A
C935        C938   1.450       .  S
C936        C939   1.448       .  S
C937        N944   1.157       .  T
C938        N943   1.157       .  T
C939        N941   1.157       .  T
C940        N942   1.157       .  T
C945        C946   1.417       .  A
C945        C950   1.418       .  A
C946        C947   1.422       .  A
C946        C951   1.450       .  S
C947        C948   1.414       .  A
C947        C954   1.445       .  S
C948        C949   1.412       .  A
C949        C950   1.416       .  A
C949        C952   1.447       .  S
C950        C953   1.451       .  S
C951        N958   1.157       .  T
C952        N957   1.157       .  T
C953        N955   1.157       .  T
C954        N956   1.157       .  T
C959        C960   1.412       .  A
C959        C964   1.417       .  A
C960        C961   1.409       .  A
C960        C965   1.449       .  S
C961        C962   1.417       .  A
C961        C968   1.454       .  S
C962        C963   1.411       .  A
C963        C964   1.416       .  A
C963        C966   1.451       .  S
C965        N972   1.157       .  T
C966        N971   1.157       .  T
C967        N969   1.156       .  T
C968        N970   1.158       .  T
C973        C974   1.408       .  A
C973        C978   1.417       .  A
C974        C975   1.414       .  A
C974        C979   1.449       .  S
C975        C976   1.426       .  A
C975        C982   1.453       .  S
C976        C977   1.417       .  A
C977        C978   1.413       .  A
C977        C980   1.452       .  S
C978        C981   1.452       .  S
C980        N985   1.158       .  T
C981        N983   1.157       .  T
C982        N984   1.158       .  T
C987        C988   1.409       .  A
C987        C992   1.412       .  A
C988        C989   1.420       .  A
C988        C993   1.446       .  S
C989        C990   1.420       .  A
C989        C996   1.450       .  S
C990        C991   1.417       .  A
C991        C992   1.412       .  A
C991        C994   1.452       .  S
C992        C995   1.449       .  S
C993       N1000   1.157   1_556  T
C994        N999   1.157       .  T
C996        N998   1.157       .  T
C1001      C1002   1.408       .  A
C1001      C1006   1.414   1_545  A
C1002      C1003   1.415       .  A
C1002      C1007   1.449       .  S
C1003      C1004   1.418       .  A
C1003      C1010   1.450       .  S
C1004      C1005   1.414   1_545  A
C1005      C1006   1.408       .  A
C1005      C1008   1.451       .  S
C1006      C1009   1.454       .  S
C1008      N1013   1.157       .  T
C1009      N1011   1.157       .  T
C1010      N1012   1.157       .  T
C1015      C1016   1.417   1_545  A
C1015      C1020   1.416       .  A
C1016      C1017   1.417       .  A
C1016      C1021   1.448       .  S
C1017      C1018   1.413       .  A
C1017      C1024   1.451       .  S
C1018      C1019   1.415   1_565  A
C1019      C1020   1.409       .  A
C1019      C1022   1.454       .  S
C1020      C1023   1.451       .  S
C1021      N1028   1.156       .  T
C1022      N1027   1.158       .  T
C1024      N1026   1.157       .  T
C1029      C1030   1.414       .  A
C1029      C1034   1.412       .  A
C1030      C1031   1.421       .  A
C1030      C1035   1.446   1_545  S
C1031      C1032   1.418       .  A
C1031      C1038   1.450   1_545  S
C1032      C1033   1.414       .  A
C1033      C1034   1.413       .  A
C1033      C1036   1.451       .  S
C1034      C1037   1.447       .  S
C1035      N1042   1.157       .  T
C1036      N1041   1.157       .  T
C1037      N1039   1.157       .  T
C1038      N1040   1.157       .  T
C1043      C1044   1.413   1_545  A
C1043      C1048   1.416       .  A
C1044      C1045   1.419       .  A
C1044      C1049   1.449       .  S
C1045      C1046   1.418   1_565  A
C1045      C1052   1.449       .  S
C1046      C1047   1.414       .  A
C1047      C1048   1.408       .  A
C1047      C1050   1.448       .  S
C1048      C1051   1.455       .  S
C1049      N1056   1.157       .  T
C1050      N1055   1.157       .  T
C1051      N1053   1.157       .  T
C1057      C1058   1.414   1_545  A
C1057      C1062   1.423       .  A
C1058      C1059   1.411       .  A
C1058      C1063   1.452       .  S
C1059      C1060   1.417   1_565  A
C1059      C1066   1.452       .  S
C1060      C1061   1.408       .  A
C1061      C1062   1.411       .  A
C1061      C1064   1.448       .  S
C1062      C1065   1.454       .  S
C1063      N1070   1.158       .  T
C1065      N1067   1.158       .  T
C1066      N1068   1.157       .  T
C1071      C1072   1.413       .  A
C1071      C1076   1.411   1_565  A
C1072      C1073   1.425       .  A
C1072      C1077   1.446       .  S
C1073      C1074   1.420       .  A
C1073      C1080   1.449       .  S
C1074      C1075   1.420       .  A
C1075      C1076   1.412   1_565  A
C1075      C1078   1.452   1_565  S
C1076      C1079   1.448       .  S
C1077      N1084   1.157   1_556  T
C1078      N1083   1.157       .  T
C1079      N1081   1.157       .  T
C1080      N1082   1.157       .  T
C1085      C1086   1.417   1_655  A
C1085      C1090   1.415       .  A
C1086      C1087   1.407       .  A
C1086      C1091   1.452       .  S
C1087      C1088   1.415   1_455  A
C1087      C1094   1.454       .  S
C1088      C1089   1.414       .  A
C1089      C1090   1.416       .  A
C1089      C1092   1.452       .  S
C1090      C1093   1.448       .  S
C1091      N1098   1.157       .  T
C1092      N1097   1.158       .  T
C1094      N1096   1.158       .  T
C1099      C1100   1.415   1_455  A
C1099      C1104   1.415       .  A
C1100      C1101   1.425       .  A
C1100      C1105   1.446       .  S
C1101      C1102   1.420   1_655  A
C1101      C1108   1.450       .  S
C1102      C1103   1.417       .  A
C1103      C1104   1.417       .  A
C1103      C1106   1.452       .  S
C1104      C1107   1.447       .  S
C1105      N1112   1.157       .  T
C1106      N1111   1.157       .  T
C1107      N1109   1.157       .  T
C1108      N1110   1.157       .  T
C1113      C1114   1.417       .  A
C1113      C1118   1.407   1_655  A
C1114      C1115   1.411       .  A
C1114      C1119   1.455       .  S
C1115      C1116   1.418       .  A
C1115      C1122   1.451       .  S
C1116      C1117   1.423   1_655  A
C1117      C1118   1.417       .  A
C1117      C1120   1.451       .  S
C1118      C1121   1.449       .  S
C1120      N1125   1.157       .  T
C1121      N1123   1.157       .  T
C1122      N1124   1.157       .  T
C1127      C1128   1.417       .  A
C1127      C1132   1.421       .  A
C1128      C1129   1.413       .  A
C1128      C1133   1.452       .  S
C1129      C1130   1.420       .  A
C1129      C1136   1.454       .  S
C1130      C1131   1.410       .  A
C1131      C1132   1.413       .  A
C1131      C1134   1.448       .  S
C1132      C1135   1.452       .  S
C1133      N1140   1.158       .  T
C1134      N1139   1.157       .  T
C1135      N1137   1.157       .  T
C1136      N1138   1.157       .  T
C1141      C1142   1.409   1_455  A
C1141      C1146   1.414       .  A
C1142      C1143   1.422       .  A
C1143      C1144   1.421       .  A
C1143      C1150   1.448       .  S
C1144      C1145   1.419   1_655  A
C1145      C1146   1.414       .  A
C1145      C1148   1.452       .  S
C1146      C1149   1.450       .  S
C1147      N1154   1.157       .  T
C1148      N1153   1.157       .  T
C1149      N1151   1.157       .  T
C1150      N1152   1.157       .  T
C1155      C1156   1.412       .  A
C1155      C1160   1.418   1_455  A
C1156      C1157   1.410       .  A
C1156      C1161   1.448       .  S
C1157      C1158   1.415       .  A
C1157      C1164   1.454       .  S
C1158      C1159   1.412   1_455  A
C1159      C1160   1.419       .  A
C1159      C1162   1.450       .  S
C1161      N1168   1.157       .  T
C1163      N1165   1.157       .  T
C1164      N1166   1.157       .  T
