geometry optimzed in LAMMPS
_audit_creation_date              2020-12-01 
_audit_creation_method            'lammps2cif' 
_symmetry_space_group_name_H-M    'P1' 
_symmetry_Int_Tables_number       1 
_symmetry_cell_setting            triclinic 
loop_ 
_symmetry_equiv_pos_as_xyz 
  x,y,z 
_cell_length_a                    44.04780265 
_cell_length_b                    44.00934108994428 
_cell_length_c                    43.98970741556233 
_cell_angle_alpha                 88.51234570750539 
_cell_angle_beta                  89.56449697648942 
_cell_angle_gamma                 89.03011672688147 
loop_ 
_atom_site_label 
_atom_site_type_symbol 
_atom_site_fract_x 
_atom_site_fract_y 
_atom_site_fract_z 
_atom_site_charge 
C1          C  0.35488259  0.38964109  0.35255732     0.80400
N2          N  0.34105749  0.37695287  0.37724694    -0.78000
C3          C  0.35257651  0.35106001  0.39053248     0.82800
N4          N  0.37714895  0.33689489  0.37811274    -0.77900
C5          C  0.39120319  0.34965220  0.35350784     0.82900
N6          N  0.37955311  0.37552580  0.34044613    -0.79600
C7          C  0.11201519  0.38615387  0.11586769     0.80400
N8          N  0.12447985  0.37275172  0.09110193    -0.78000
C9          C  0.10934519  0.35039521  0.07717033     0.82800
N10         N  0.08235917  0.34082516  0.08885326    -0.77900
C11         C  0.06971993  0.35416644  0.11354730     0.82900
N12         N  0.08501312  0.37642560  0.12732243    -0.79600
C13         C  0.39045633  0.10741335  0.34792185     0.80400
N14         N  0.37667926  0.12031623  0.37221537    -0.78000
C15         C  0.34984925  0.10986709  0.38315692     0.82800
N16         N  0.33604753  0.08695205  0.36888271    -0.77900
C17         C  0.34974616  0.07365497  0.34464961     0.82900
N18         N  0.37668309  0.08427952  0.33381994    -0.79600
C19         C  0.11657856  0.10884461  0.38813173     0.80400
N20         N  0.12906185  0.08329392  0.37616437    -0.78000
C21         C  0.11531216  0.06984629  0.35261184     0.82800
N22         N  0.08972572  0.08261556  0.34053608    -0.77900
C23         C  0.07704993  0.10805483  0.35232665     0.82900
N24         N  0.09096096  0.12157882  0.37574003    -0.79600
C25         C  0.11001951  0.38508449  0.35034549     0.80400
N26         N  0.11900212  0.37351349  0.37781334    -0.78000
C27         C  0.10516572  0.34902169  0.39074443     0.82800
N28         N  0.08285557  0.33536285  0.37533704    -0.77900
C29         C  0.07360571  0.34675325  0.34785211     0.82900
N30         N  0.08763183  0.37127238  0.33499763    -0.79600
C31         C  0.38665399  0.11578702  0.11088392     0.80400
N32         N  0.37650891  0.12718353  0.08377494    -0.78000
C33         C  0.35475290  0.11240884  0.06854260     0.82800
N34         N  0.34261829  0.08676605  0.08114838    -0.77900
C35         C  0.35285705  0.07515395  0.10816218     0.82900
N36         N  0.37437794  0.09020020  0.12330573    -0.79600
O37         O  0.25891188  0.25783426  0.06866354    -0.72800
O38         O  0.19624598  0.18865598  0.07015572    -0.73800
O39         O  0.26139608  0.19142106  0.06653471    -0.62400
O40         O  0.19108066  0.25545990  0.07138843    -0.70800
O41         O  0.19082603  0.25496030  0.02117921    -0.70400
O42         O  0.25791486  0.19719590  0.01658026    -0.61600
O43         O  0.19671776  0.19277071  0.01988950    -0.74100
O44         O  0.25356691  0.25933601  0.01874558    -0.72900
Cu45       Cu  0.22692471  0.22352499  0.07144008     1.04600
Cu46       Cu  0.22464375  0.22636096  0.01789333     1.04300
C47         C  0.26688317  0.26840276  0.04237381     0.93400
C48         C  0.18823649  0.17900556  0.04421001     0.92500
C49         C  0.26969130  0.18385281  0.03967650     0.84700
C50         C  0.17929347  0.26425173  0.04589107     0.87700
C51         C  0.12348579  0.12323107  0.04883508     0.03300
C52         C  0.14615422  0.14247261  0.05972237    -0.12900
C53         C  0.16924871  0.15199472  0.03995862     0.00800
C54         C  0.17083084  0.13920032  0.01130559    -0.11400
C55         C  0.14430017  0.12924161  0.49765517     0.03300
C56         C  0.12085593  0.11886179  0.01708766    -0.10800
H57         H  0.14577821  0.14968027  0.08309150     0.08800
H58         H  0.19054935  0.14373273  0.49704758     0.06400
H59         H  0.10110360  0.10810581  0.00795366     0.06200
C60         C  0.12452510  0.33207049  0.05385223     0.03300
C61         C  0.11911052  0.33753724  0.02234408    -0.12900
C62         C  0.12859841  0.31552690  0.50146605     0.00800
C63         C  0.13950055  0.28756701  0.01351443    -0.11400
C64         C  0.15278668  0.28573580  0.04236163     0.03300
C65         C  0.14379197  0.30754981  0.06338121    -0.10800
H66         H  0.10819551  0.35848144  0.01442973     0.08800
H67         H  0.14360297  0.26915035  0.49799169     0.06400
H68         H  0.15143486  0.30555284  0.08670664     0.06200
C69         C  0.33753688  0.12884476  0.04474577     0.03300
C70         C  0.31322493  0.14764354  0.05444516    -0.12900
C71         C  0.29300349  0.16008231  0.03316279     0.00800
C72         C  0.29636851  0.15162381  0.00292709    -0.11400
C73         C  0.32364543  0.13910499  0.49183167     0.03300
C74         C  0.34402796  0.12601429  0.01321626    -0.10800
H75         H  0.30999416  0.15216960  0.07836888     0.08800
H76         H  0.27890844  0.15837116  0.48676007     0.06400
H77         H  0.36443630  0.11427730  0.00570914     0.06200
C78         C  0.32488245  0.33248680  0.04897365     0.03300
C79         C  0.32815253  0.34015494  0.01771711    -0.12900
C80         C  0.31468073  0.32188811  0.49620596     0.00800
C81         C  0.30064793  0.29522966  0.00662808    -0.11400
C82         C  0.29154192  0.29089833  0.03687362     0.03300
C83         C  0.30494533  0.30906103  0.05866523    -0.10800
H84         H  0.34090881  0.35990494  0.01044182     0.08800
H85         H  0.29398531  0.27887570  0.49006910     0.06400
H86         H  0.30016094  0.30513041  0.08261173     0.06200
O87         O  0.20307637  0.19928054  0.44194671    -0.72800
O88         O  0.26028208  0.26551612  0.44036516    -0.73800
O89         O  0.19910457  0.26154102  0.44361252    -0.62400
O90         O  0.26588198  0.20332526  0.43896629    -0.70800
O91         O  0.26574889  0.20322462  0.38873054    -0.70400
O92         O  0.19575549  0.26734385  0.39363711    -0.61600
O93         O  0.26065702  0.26989221  0.39010345    -0.74100
O94         O  0.19785055  0.20078645  0.39200139    -0.72900
Cu95       Cu  0.23219655  0.23210494  0.44242483     1.04600
Cu96       Cu  0.22995346  0.23509164  0.38885717     1.04300
C97         C  0.18981651  0.19021862  0.41831200     0.93400
C98         C  0.26865684  0.27942006  0.41609966     0.92500
C99         C  0.18760229  0.27507710  0.42046639     0.84700
C100        C  0.27756007  0.19436524  0.41417274     0.90900
C101        C  0.13299282  0.12532362  0.41123325     0.03300
C102        C  0.15276122  0.14897139  0.40189273    -0.12900
C103        C  0.16520492  0.16763952  0.42374867     0.00800
C104        C  0.15541146  0.16352524  0.45385835    -0.11400
C105        C  0.14144093  0.13672157  0.46428675     0.03300
C106        C  0.12888599  0.11796491  0.44253210    -0.10800
H107        H  0.15813474  0.15273711  0.37804091     0.08800
H108        H  0.16172950  0.18006236  0.47039049     0.06400
H109        H  0.11627554  0.09805845  0.44964498     0.06200
C110        C  0.12132799  0.33187177  0.41489698     0.03300
C111        C  0.11472209  0.33486464  0.44645436    -0.12900
C112        C  0.13467475  0.32117951  0.46800642     0.00800
C113        C  0.16170093  0.30808348  0.45699481    -0.11400
C114        C  0.16485339  0.29937593  0.42683786     0.03300
C115        C  0.14509851  0.31231150  0.40541961    -0.10800
H116        H  0.09462477  0.34720098  0.45384091     0.08800
H117        H  0.17900920  0.30100101  0.47320086     0.06400
H118        H  0.14837110  0.30767340  0.38152228     0.06200
C119        C  0.33364085  0.12757258  0.40625931     0.03300
C120        C  0.31375184  0.15156262  0.39662646    -0.12900
C121        C  0.30447328  0.17341673  0.41752872     0.00800
C122        C  0.31810807  0.17224069  0.44619511    -0.11400
C123        C  0.32955262  0.14462169  0.45840578     0.03300
C124        C  0.33939228  0.12259226  0.43774305    -0.10800
H125        H  0.30598313  0.15320983  0.37332666     0.08800
H126        H  0.31377970  0.19073472  0.46157522     0.06400
H127        H  0.35091420  0.10202520  0.44580326     0.06200
C128        C  0.33347479  0.33478056  0.41238739     0.03300
C129        C  0.33558637  0.33943728  0.44399991    -0.12900
C130        C  0.31181976  0.32941340  0.46300446     0.00800
C131        C  0.28541897  0.31946279  0.44906636    -0.11400
C132        C  0.28742209  0.30650140  0.42048893     0.03300
C133        C  0.31090391  0.31572615  0.40110806    -0.10800
H134        H  0.35527377  0.35011014  0.45338207     0.08800
H135        H  0.26553936  0.31495586  0.46310382     0.06400
H136        H  0.31168635  0.30839755  0.37778305     0.06200
O137        O  0.26101238  0.07056528  0.19272424    -0.72800
O138        O  0.19274991  0.06635490  0.25792862    -0.73800
O139        O  0.25913823  0.06861517  0.26088643    -0.62400
O140        O  0.19589769  0.06804047  0.19111412    -0.70800
O141        O  0.20193711  0.01804682  0.19284244    -0.70400
O142        O  0.25856506  0.01849259  0.25966536    -0.61600
O143        O  0.19653541  0.01635089  0.25507988    -0.74100
O144        O  0.26312610  0.02033399  0.19662142    -0.72900
Cu145      Cu  0.22722230  0.07065775  0.22581430     1.04600
Cu146      Cu  0.23021233  0.01711407  0.22616969     1.04300
C147        C  0.27109051  0.04494600  0.18323455     0.93400
C148        C  0.18375333  0.03975609  0.26615521     0.92500
C149        C  0.26801556  0.04251747  0.27164726     0.84700
C150        C  0.18998501  0.04182208  0.18069960     0.90900
C151        C  0.12195061  0.04667415  0.12785469     0.03300
C152        C  0.11726753  0.01504116  0.12543675    -0.12900
C153        C  0.13988318  0.49466812  0.13628807     0.00800
C154        C  0.16745779  0.00679307  0.14526063    -0.11400
C155        C  0.16854811  0.03650361  0.15557926     0.03300
C156        C  0.14622323  0.05716436  0.14540995    -0.10800
H157        H  0.09667960  0.00669550  0.11555071     0.08800
H158        H  0.18623887  0.49120192  0.15015223     0.06400
H159        H  0.14777039  0.08100788  0.15065777     0.06200
C160        C  0.33492837  0.05189256  0.12428471     0.03300
C161        C  0.31279521  0.06169718  0.14558162    -0.12900
C162        C  0.29091779  0.04124826  0.15601912     0.00800
C163        C  0.28996587  0.01303942  0.14229721    -0.11400
C164        C  0.31640139  0.50012168  0.12977095     0.03300
C165        C  0.33850479  0.02036396  0.11845255    -0.10800
H166        H  0.31249426  0.08481953  0.15346834     0.08800
H167        H  0.27079880  0.49848629  0.14724828     0.06400
H168        H  0.35806969  0.01199092  0.10597476     0.06200
C169        C  0.13131353  0.04633740  0.33538145     0.03300
C170        C  0.14867430  0.05565203  0.30971618    -0.12900
C171        C  0.15980133  0.03397025  0.28959731     0.00800
C172        C  0.15123927  0.00377729  0.29449541    -0.11400
C173        C  0.13992834  0.49336805  0.32272261     0.03300
C174        C  0.12849601  0.01501506  0.34299342    -0.10800
H175        H  0.15336178  0.07950348  0.30557241     0.08800
H176        H  0.15755496  0.48706983  0.27779542     0.06400
H177        H  0.11791915  0.00780151  0.36421764     0.06200
C178        C  0.33333675  0.05057074  0.32815021     0.03300
C179        C  0.34136438  0.01936448  0.33176251    -0.12900
C180        C  0.32219811  0.49746595  0.32000101     0.00800
C181        C  0.29447710  0.00755943  0.30750919    -0.11400
C182        C  0.28997617  0.03764970  0.29721428     0.03300
C183        C  0.30888034  0.05972366  0.30899477    -0.10800
H184        H  0.36200906  0.01243114  0.34344111     0.08800
H185        H  0.27803543  0.49065951  0.30165169     0.06400
H186        H  0.30482686  0.08355195  0.30341474     0.06200
O187        O  0.19792567  0.39109676  0.20455536    -0.72800
O188        O  0.27160785  0.39173169  0.26308290    -0.73800
O189        O  0.20520881  0.39011139  0.27109807    -0.62400
O190        O  0.26523838  0.39273817  0.19801312    -0.70800
O191        O  0.25895976  0.44271381  0.19789888    -0.70400
O192        O  0.20704297  0.44029663  0.26978376    -0.61600
O193        O  0.26869371  0.44188199  0.25879845    -0.74100
O194        O  0.19674222  0.44107233  0.20799385    -0.72900
Cu195      Cu  0.23490172  0.38917368  0.23414883     1.04600
Cu196      Cu  0.23266482  0.44270859  0.23357080     1.04300
C197        C  0.18562938  0.41701676  0.19750071     0.93400
C198        C  0.28215200  0.41794936  0.26892455     0.92500
C199        C  0.19744239  0.41582931  0.28221468     0.84700
C200        C  0.27246540  0.41924401  0.18776469     0.90900
C201        C  0.12872985  0.40893828  0.13241112     0.03300
C202        C  0.14835248  0.39971846  0.15652877    -0.12900
C203        C  0.15959336  0.42164227  0.17599611     0.00800
C204        C  0.14861906  0.45153662  0.17207222    -0.11400
C205        C  0.13553777  0.46183697  0.14460506     0.03300
C206        C  0.12408022  0.44015700  0.12520036    -0.10800
H207        H  0.15453810  0.37597491  0.16002150     0.08800
H208        H  0.15459473  0.46835565  0.18848131     0.06400
H209        H  0.11201336  0.44729088  0.10480232     0.06200
C210        C  0.32913577  0.41358181  0.12147970     0.03300
C211        C  0.30904980  0.40386377  0.14492041    -0.12900
C212        C  0.29690841  0.42507086  0.16488609     0.00800
C213        C  0.30726413  0.45481481  0.16235428    -0.11400
C214        C  0.32050450  0.46635572  0.13541933     0.03300
C215        C  0.33322083  0.44515151  0.11527020    -0.10800
H216        H  0.30341733  0.38007720  0.14773962     0.08800
H217        H  0.30143662  0.47043775  0.18020775     0.06400
H218        H  0.34570691  0.45281499  0.09528768     0.06200
C219        C  0.12899384  0.40817277  0.33524428     0.03300
C220        C  0.12364671  0.43959713  0.33969837    -0.12900
C221        C  0.14588586  0.46043710  0.33029013     0.00800
C222        C  0.17394583  0.44879412  0.32028746    -0.11400
C223        C  0.17612428  0.41964210  0.30839548     0.03300
C224        C  0.15408229  0.39856213  0.31737059    -0.10800
H225        H  0.10249899  0.44753634  0.34966015     0.08800
H226        H  0.19202921  0.46471131  0.31553269     0.06400
H227        H  0.15618227  0.37515350  0.31049607     0.06200
C228        C  0.33868240  0.41252220  0.33376590     0.03300
C229        C  0.31992668  0.40216913  0.31035739    -0.12900
C230        C  0.30906262  0.42288026  0.28826915     0.00800
C231        C  0.32016188  0.45242039  0.28835144    -0.11400
C232        C  0.33038822  0.46463878  0.31547722     0.03300
C233        C  0.34172050  0.44418758  0.33798291    -0.10800
H234        H  0.31380245  0.37845660  0.30961474     0.08800
H235        H  0.31453817  0.46788699  0.26954438     0.06400
H236        H  0.35214755  0.45250016  0.35829106     0.06200
C237        C  0.34531455  0.38997914  0.10446325     0.80400
N238        N  0.33053833  0.37549870  0.08227121    -0.78000
C239        C  0.34197089  0.34907379  0.07139955     0.82800
N240        N  0.36777043  0.33649046  0.08343034    -0.77900
C241        C  0.38294458  0.35095285  0.10542293     0.82900
N242        N  0.37115627  0.37731019  0.11635468    -0.79600
O243        O  0.02019323  0.19136832  0.25730621    -0.72800
O244        O  0.01665121  0.26254866  0.20329807    -0.73800
O245        O  0.01759099  0.20165717  0.19569185    -0.62400
O246        O  0.01928319  0.25304167  0.26573744    -0.70800
O247        O  0.06920769  0.25686173  0.26448095    -0.70400
O248        O  0.06764499  0.19826379  0.19200193    -0.61600
O249        O  0.06652371  0.26320565  0.19702273    -0.74100
O250        O  0.07037690  0.19021035  0.25838484    -0.72900
Cu251      Cu  0.01724105  0.22719718  0.23072869     1.04600
Cu252      Cu  0.07071531  0.22722433  0.22807125     1.04300
C253        C  0.04479864  0.17891013  0.26658054     0.93400
C254        C  0.03990826  0.27294809  0.18952236     0.92500
C255        C  0.04122895  0.19190067  0.18210117     0.84700
C256        C  0.04341410  0.26376208  0.27659073     0.90900
C257        C  0.04566188  0.12747385  0.12647320     0.03300
C258        C  0.05631788  0.15086681  0.14480161    -0.12900
C259        C  0.03567906  0.17241797  0.15579763     0.00800
C260        C  0.00580053  0.17173383  0.14545971    -0.11400
C261        C  0.49384048  0.14474369  0.13489647     0.03300
C262        C  0.01415139  0.12288324  0.12349058    -0.10800
H263        H  0.08015159  0.15199319  0.15050137     0.08800
H264        H  0.49016569  0.19003116  0.15130997     0.06400
H265        H  0.00581804  0.10271275  0.11294364     0.06200
C266        C  0.04556361  0.33808738  0.13041049     0.03300
C267        C  0.01394823  0.34391215  0.12552088    -0.12900
C268        C  0.49251806  0.32401402  0.13903013     0.00800
C269        C  0.00407921  0.29761642  0.15378840    -0.11400
C270        C  0.03381396  0.29551597  0.16443843     0.03300
C271        C  0.05503970  0.31528867  0.15168077    -0.10800
H272        H  0.00643958  0.36334347  0.11177705     0.08800
H273        H  0.48857666  0.27965135  0.16016758     0.06400
H274        H  0.07879543  0.31263313  0.15761769     0.06200
C275        C  0.05331878  0.12424392  0.33461817     0.03300
C276        C  0.02183976  0.11981023  0.34028739    -0.12900
C277        C  0.50068957  0.12977395  0.31807963     0.00800
C278        C  0.01222557  0.13999291  0.28991461    -0.11400
C279        C  0.04126620  0.15228402  0.28781954     0.03300
C280        C  0.06257350  0.14293571  0.30969420    -0.10800
H281        H  0.01416852  0.10922454  0.36140994     0.08800
H282        H  0.49630167  0.14471923  0.27162054     0.06400
H283        H  0.08597944  0.14990854  0.30743087     0.06200
C284        C  0.05105056  0.32997319  0.33101489     0.03300
C285        C  0.01978708  0.33645923  0.33532429    -0.12900
C286        C  0.49843812  0.31611619  0.32474101     0.00800
C287        C  0.00915318  0.28852221  0.31315833    -0.11400
C288        C  0.03890011  0.28533401  0.30206404     0.03300
C289        C  0.06052597  0.30571030  0.31233053    -0.10800
H290        H  0.01237663  0.35692936  0.34655044     0.08800
H291        H  0.49261824  0.27144651  0.30802176     0.06400
H292        H  0.08423084  0.30272169  0.30623923     0.06200
O293        O  0.44006363  0.19952236  0.20288870    -0.72800
O294        O  0.44164799  0.26675547  0.25756492    -0.73800
O295        O  0.44387725  0.20458008  0.26476557    -0.62400
O296        O  0.43815227  0.26225920  0.19645412    -0.70800
O297        O  0.38804539  0.26597611  0.19903772    -0.70400
O298        O  0.39399745  0.20118654  0.26911794    -0.61600
O299        O  0.39184532  0.26789165  0.26424874    -0.74100
O300        O  0.38997276  0.19780385  0.20276927    -0.72900
Cu301      Cu  0.44209280  0.23318354  0.23021921     1.04600
Cu302      Cu  0.38866878  0.23303646  0.23380314     1.04300
C303        C  0.41589533  0.18723175  0.19399955     0.93400
C304        C  0.41813572  0.27859799  0.26963952     0.92500
C305        C  0.42078296  0.19333372  0.27808231     0.84700
C306        C  0.41349851  0.27548646  0.18838235     0.90900
C307        C  0.40875665  0.13226539  0.12836264     0.03300
C308        C  0.43999638  0.12873877  0.12168883    -0.12900
C309        C  0.46118449  0.13951899  0.14211203     0.00800
C310        C  0.45044448  0.15073852  0.16976188    -0.11400
C311        C  0.42052515  0.16149972  0.17284419     0.03300
C312        C  0.39893802  0.15068961  0.15267182    -0.10800
H313        H  0.44751121  0.11785918  0.10108470     0.08800
H314        H  0.46692478  0.15596593  0.18697852     0.06400
H315        H  0.37512515  0.15649401  0.15557453     0.06200
C316        C  0.40650202  0.33444919  0.12321811     0.03300
C317        C  0.39673220  0.31298873  0.14564255    -0.12900
C318        C  0.41715928  0.30266251  0.16788480     0.00800
C319        C  0.44538182  0.31658942  0.16879354    -0.11400
C320        C  0.45848482  0.32910430  0.14221900     0.03300
C321        C  0.43814562  0.34040694  0.11973400    -0.10800
H322        H  0.37357817  0.30504095  0.14600375     0.08800
H323        H  0.45971240  0.31201184  0.18839938     0.06400
H324        H  0.44648416  0.35315237  0.10009629     0.06200
C325        C  0.41452057  0.12453012  0.33225838     0.03300
C326        C  0.40537096  0.15006508  0.31426159    -0.12900
C327        C  0.42701260  0.17008561  0.30259902     0.00800
C328        C  0.45726606  0.16528403  0.31122628    -0.11400
C329        C  0.46765933  0.13722699  0.32362893     0.03300
C330        C  0.44583299  0.11700409  0.33554491    -0.10800
H331        H  0.38154030  0.15414445  0.30937288     0.08800
H332        H  0.47391634  0.18201911  0.30434292     0.06400
H333        H  0.45288416  0.09586475  0.34673366     0.06200
C334        C  0.41356149  0.33219773  0.33619755     0.03300
C335        C  0.40308058  0.31434553  0.31228150    -0.12900
C336        C  0.42382941  0.30362329  0.29074751     0.00800
C337        C  0.45373495  0.31354308  0.29222175    -0.11400
C338        C  0.46559049  0.32348466  0.31956924     0.03300
C339        C  0.44510889  0.33476570  0.34133572    -0.10800
H340        H  0.37919285  0.30927302  0.31040275     0.08800
H341        H  0.46950213  0.30818424  0.27398960     0.06400
H342        H  0.45333219  0.34516367  0.36167050     0.06200
C343        C  0.06780160  0.10902366  0.11014248     0.80400
N344        N  0.08078576  0.12112990  0.08455140    -0.78000
C345        C  0.10475097  0.10689232  0.07132076     0.82800
N346        N  0.11660962  0.08135196  0.08477049    -0.77900
C347        C  0.10401726  0.06924795  0.11049744     0.82900
N348        N  0.07996502  0.08356059  0.12363780    -0.79600
C349        C  0.35488258  0.38964109  0.85255734     0.80400
N350        N  0.34105747  0.37695287  0.87724698    -0.78000
C351        C  0.35257651  0.35106001  0.89053251     0.82800
N352        N  0.37714894  0.33689490  0.87811276    -0.77900
C353        C  0.39120318  0.34965219  0.85350786     0.82900
N354        N  0.37955309  0.37552580  0.84044615    -0.79600
C355        C  0.11201515  0.38615387  0.61586759     0.80400
N356        N  0.12447979  0.37275167  0.59110187    -0.78000
C357        C  0.10934508  0.35039518  0.57717026     0.82800
N358        N  0.08235911  0.34082510  0.58885331    -0.77900
C359        C  0.06971988  0.35416645  0.61354729     0.82900
N360        N  0.08501304  0.37642571  0.62732234    -0.79600
C361        C  0.39045628  0.10741332  0.84792186     0.80400
N362        N  0.37667919  0.12031620  0.87221532    -0.78000
C363        C  0.34984916  0.10986707  0.88315687     0.82800
N364        N  0.33604750  0.08695196  0.86888271    -0.77900
C365        C  0.34974611  0.07365492  0.84464960     0.82900
N366        N  0.37668304  0.08427949  0.83381990    -0.79600
C367        C  0.11657848  0.10884462  0.88813177     0.80400
N368        N  0.12906176  0.08329396  0.87616441    -0.78000
C369        C  0.11531212  0.06984631  0.85261186     0.82800
N370        N  0.08972565  0.08261560  0.84053614    -0.77900
C371        C  0.07704986  0.10805484  0.85232669     0.82900
N372        N  0.09096086  0.12157885  0.87574008    -0.79600
C373        C  0.11001951  0.38508448  0.85034549     0.80400
N374        N  0.11900213  0.37351351  0.87781337    -0.78000
C375        C  0.10516570  0.34902175  0.89074450     0.82800
N376        N  0.08285552  0.33536292  0.87533715    -0.77900
C377        C  0.07360569  0.34675325  0.84785218     0.82900
N378        N  0.08763182  0.37127236  0.83499767    -0.79600
C379        C  0.38665399  0.11578701  0.61088387     0.80400
N380        N  0.37650891  0.12718350  0.58377486    -0.78000
C381        C  0.35475293  0.11240879  0.56854251     0.82800
N382        N  0.34261828  0.08676603  0.58114830    -0.77900
C383        C  0.35285703  0.07515396  0.60816213     0.82900
N384        N  0.37437792  0.09020019  0.62330566    -0.79600
O385        O  0.25891187  0.25783431  0.56866351    -0.72800
O386        O  0.19624598  0.18865598  0.57015583    -0.73800
O387        O  0.26139608  0.19142106  0.56653473    -0.62400
O388        O  0.19108065  0.25545994  0.57138843    -0.70800
O389        O  0.19082603  0.25496031  0.52117920    -0.70400
O390        O  0.25791484  0.19719586  0.51658029    -0.61600
O391        O  0.19671771  0.19277075  0.51988961    -0.74100
O392        O  0.25356689  0.25933599  0.51874555    -0.72900
Cu393      Cu  0.22692470  0.22352505  0.57144013     1.04600
Cu394      Cu  0.22464373  0.22636095  0.51789339     1.04300
C395        C  0.26688314  0.26840279  0.54237376     0.93400
C396        C  0.18823647  0.17900556  0.54421011     0.92500
C397        C  0.26969128  0.18385276  0.53967651     0.84700
C398        C  0.17929347  0.26425178  0.54589105     0.87700
C399        C  0.12348569  0.12323111  0.54883506     0.03300
C400        C  0.14615418  0.14247258  0.55972242    -0.12900
C401        C  0.16924870  0.15199468  0.53995868     0.00800
C402        C  0.17083084  0.13920030  0.51130565    -0.11400
C403        C  0.14430020  0.12924161  0.99765515     0.03300
C404        C  0.12085592  0.11886178  0.51708765    -0.10800
H405        H  0.14577816  0.14968015  0.58309144     0.08800
H406        H  0.19054935  0.14373277  0.99704747     0.06400
H407        H  0.10110352  0.10810571  0.50795357     0.06200
C408        C  0.12452495  0.33207047  0.55385215     0.03300
C409        C  0.11911032  0.33753722  0.52234396    -0.12900
C410        C  0.12859845  0.31552694  0.00146612     0.00800
C411        C  0.13950050  0.28756708  0.51351446    -0.11400
C412        C  0.15278667  0.28573583  0.54236161     0.03300
C413        C  0.14379190  0.30754993  0.56338102    -0.10800
H414        H  0.10819542  0.35848113  0.51442967     0.08800
H415        H  0.14360286  0.26915081  0.99799204     0.06400
H416        H  0.15143507  0.30555299  0.58670714     0.06200
C417        C  0.33753687  0.12884473  0.54474571     0.03300
C418        C  0.31322495  0.14764346  0.55444499    -0.12900
C419        C  0.29300346  0.16008226  0.53316278     0.00800
C420        C  0.29636853  0.15162377  0.50292709    -0.11400
C421        C  0.32364544  0.13910497  0.99183171     0.03300
C422        C  0.34402795  0.12601426  0.51321618    -0.10800
H423        H  0.30999408  0.15216968  0.57836953     0.08800
H424        H  0.27890866  0.15837109  0.98676028     0.06400
H425        H  0.36443624  0.11427729  0.50570907     0.06200
C426        C  0.32488244  0.33248677  0.54897364     0.03300
C427        C  0.32815254  0.34015489  0.51771709    -0.12900
C428        C  0.31468069  0.32188819  0.99620600     0.00800
C429        C  0.30064796  0.29522964  0.50662806    -0.11400
C430        C  0.29154190  0.29089832  0.53687356     0.03300
C431        C  0.30494533  0.30906102  0.55866510    -0.10800
H432        H  0.34090879  0.35990492  0.51044178     0.08800
H433        H  0.29398541  0.27887597  0.99006935     0.06400
H434        H  0.30016078  0.30513031  0.58261207     0.06200
O435        O  0.20307638  0.19928049  0.94194660    -0.72800
O436        O  0.26028207  0.26551608  0.94036509    -0.73800
O437        O  0.19910454  0.26154099  0.94361242    -0.62400
O438        O  0.26588197  0.20332521  0.93896629    -0.70800
O439        O  0.26574887  0.20322457  0.88873055    -0.70400
O440        O  0.19575548  0.26734384  0.89363705    -0.61600
O441        O  0.26065703  0.26989218  0.89010341    -0.74100
O442        O  0.19785050  0.20078651  0.89200131    -0.72900
Cu443      Cu  0.23219653  0.23210489  0.94242474     1.04600
Cu444      Cu  0.22995346  0.23509162  0.88885719     1.04300
C445        C  0.18981649  0.19021862  0.91831191     0.93400
C446        C  0.26865684  0.27942004  0.91609963     0.92500
C447        C  0.18760228  0.27507711  0.92046633     0.84700
C448        C  0.27756006  0.19436518  0.91417274     0.90900
C449        C  0.13299277  0.12532365  0.91123325     0.03300
C450        C  0.15276123  0.14897139  0.90189261    -0.12900
C451        C  0.16520488  0.16763953  0.92374860     0.00800
C452        C  0.15541136  0.16352542  0.95385838    -0.11400
C453        C  0.14144089  0.13672160  0.96428673     0.03300
C454        C  0.12888598  0.11796488  0.94253211    -0.10800
H455        H  0.15813465  0.15273697  0.87804133     0.08800
H456        H  0.16172912  0.18006202  0.97038996     0.06400
H457        H  0.11627575  0.09805867  0.94964492     0.06200
C458        C  0.12132796  0.33187180  0.91489704     0.03300
C459        C  0.11472212  0.33486459  0.94645441    -0.12900
C460        C  0.13467474  0.32117949  0.96800646     0.00800
C461        C  0.16170097  0.30808345  0.95699483    -0.11400
C462        C  0.16485342  0.29937601  0.92683783     0.03300
C463        C  0.14509856  0.31231160  0.90541951    -0.10800
H464        H  0.09462456  0.34720111  0.95384110     0.08800
H465        H  0.17900901  0.30100102  0.97320066     0.06400
H466        H  0.14837105  0.30767370  0.88152278     0.06200
C467        C  0.33364081  0.12757254  0.90625930     0.03300
C468        C  0.31375179  0.15156260  0.89662633    -0.12900
C469        C  0.30447326  0.17341667  0.91752873     0.00800
C470        C  0.31810807  0.17224063  0.94619509    -0.11400
C471        C  0.32955260  0.14462164  0.95840580     0.03300
C472        C  0.33939225  0.12259221  0.93774304    -0.10800
H473        H  0.30598330  0.15320977  0.87332721     0.08800
H474        H  0.31377972  0.19073473  0.96157524     0.06400
H475        H  0.35091417  0.10202517  0.94580324     0.06200
C476        C  0.33347480  0.33478053  0.91238741     0.03300
C477        C  0.33558633  0.33943724  0.94399990    -0.12900
C478        C  0.31181975  0.32941342  0.96300447     0.00800
C479        C  0.28541895  0.31946282  0.94906636    -0.11400
C480        C  0.28742207  0.30650140  0.92048894     0.03300
C481        C  0.31090391  0.31572611  0.90110807    -0.10800
H482        H  0.35527397  0.35011029  0.95338218     0.08800
H483        H  0.26553927  0.31495592  0.96310386     0.06400
H484        H  0.31168632  0.30839754  0.87778314     0.06200
O485        O  0.26101222  0.07056531  0.69272418    -0.72800
O486        O  0.19274990  0.06635493  0.75792861    -0.73800
O487        O  0.25913820  0.06861517  0.76088646    -0.62400
O488        O  0.19589762  0.06804053  0.69111415    -0.70800
O489        O  0.20193709  0.01804687  0.69284236    -0.70400
O490        O  0.25856485  0.01849256  0.75966546    -0.61600
O491        O  0.19653531  0.01635090  0.75507983    -0.74100
O492        O  0.26312603  0.02033401  0.69662139    -0.72900
Cu493      Cu  0.22722225  0.07065785  0.72581433     1.04600
Cu494      Cu  0.23021220  0.01711406  0.72616970     1.04300
C495        C  0.27109040  0.04494605  0.68323449     0.93400
C496        C  0.18375331  0.03975613  0.76615519     0.92500
C497        C  0.26801546  0.04251743  0.77164731     0.84700
C498        C  0.18998497  0.04182215  0.68069957     0.90900
C499        C  0.12195057  0.04667414  0.62785462     0.03300
C500        C  0.11726746  0.01504116  0.62543662    -0.12900
C501        C  0.13988318  0.49466808  0.63628805     0.00800
C502        C  0.16745761  0.00679311  0.64526058    -0.11400
C503        C  0.16854798  0.03650358  0.65557930     0.03300
C504        C  0.14622312  0.05716433  0.64540999    -0.10800
H505        H  0.09667946  0.00669549  0.61555049     0.08800
H506        H  0.18623905  0.49120174  0.65015233     0.06400
H507        H  0.14777029  0.08100782  0.65065782     0.06200
C508        C  0.33492835  0.05189259  0.62428465     0.03300
C509        C  0.31279515  0.06169738  0.64558156    -0.12900
C510        C  0.29091771  0.04124835  0.65601903     0.00800
C511        C  0.28996580  0.01303947  0.64229719    -0.11400
C512        C  0.31640137  0.50012165  0.62977096     0.03300
C513        C  0.33850475  0.02036400  0.61845263    -0.10800
H514        H  0.31249424  0.08481908  0.65346800     0.08800
H515        H  0.27079860  0.49848612  0.64724828     0.06400
H516        H  0.35806993  0.01199080  0.60597467     0.06200
C517        C  0.13131347  0.04633740  0.83538145     0.03300
C518        C  0.14867428  0.05565206  0.80971616    -0.12900
C519        C  0.15980133  0.03397027  0.78959731     0.00800
C520        C  0.15123927  0.00377729  0.79449535    -0.11400
C521        C  0.13992821  0.49336804  0.82272252     0.03300
C522        C  0.12849604  0.01501508  0.84299327    -0.10800
H523        H  0.15336172  0.07950342  0.80557241     0.08800
H524        H  0.15755497  0.48706963  0.77779511     0.06400
H525        H  0.11791885  0.00780126  0.86421816     0.06200
C526        C  0.33333669  0.05057072  0.82815018     0.03300
C527        C  0.34136432  0.01936446  0.83176257    -0.12900
C528        C  0.32219801  0.49746593  0.82000094     0.00800
C529        C  0.29447707  0.00755942  0.80750922    -0.11400
C530        C  0.28997610  0.03764967  0.79721428     0.03300
C531        C  0.30888033  0.05972361  0.80899469    -0.10800
H532        H  0.36200885  0.01243118  0.84344111     0.08800
H533        H  0.27803567  0.49065983  0.80165174     0.06400
H534        H  0.30482685  0.08355205  0.80341454     0.06200
O535        O  0.19792565  0.39109675  0.70455534    -0.72800
O536        O  0.27160783  0.39173166  0.76308293    -0.73800
O537        O  0.20520880  0.39011144  0.77109794    -0.62400
O538        O  0.26523827  0.39273822  0.69801310    -0.70800
O539        O  0.25895973  0.44271387  0.69789884    -0.70400
O540        O  0.20704300  0.44029667  0.76978379    -0.61600
O541        O  0.26869369  0.44188195  0.75879852    -0.74100
O542        O  0.19674218  0.44107230  0.70799389    -0.72900
Cu543      Cu  0.23490169  0.38917377  0.73414878     1.04600
Cu544      Cu  0.23266481  0.44270859  0.73357084     1.04300
C545        C  0.18562937  0.41701674  0.69750068     0.93400
C546        C  0.28215197  0.41794934  0.76892462     0.92500
C547        C  0.19744237  0.41582932  0.78221461     0.84700
C548        C  0.27246534  0.41924403  0.68776466     0.90900
C549        C  0.12872986  0.40893826  0.63241102     0.03300
C550        C  0.14835250  0.39971843  0.65652866    -0.12900
C551        C  0.15959334  0.42164223  0.67599604     0.00800
C552        C  0.14861894  0.45153659  0.67207227    -0.11400
C553        C  0.13553772  0.46183694  0.64460504     0.03300
C554        C  0.12408023  0.44015700  0.62520027    -0.10800
H555        H  0.15453812  0.37597488  0.66002135     0.08800
H556        H  0.15459452  0.46835545  0.68848125     0.06400
H557        H  0.11201346  0.44729086  0.60480229     0.06200
C558        C  0.32913576  0.41358180  0.62147970     0.03300
C559        C  0.30904980  0.40386372  0.64492043    -0.12900
C560        C  0.29690841  0.42507083  0.66488611     0.00800
C561        C  0.30726412  0.45481474  0.66235419    -0.11400
C562        C  0.32050447  0.46635570  0.63541931     0.03300
C563        C  0.33322084  0.44515151  0.61527019    -0.10800
H564        H  0.30341735  0.38007723  0.64773963     0.08800
H565        H  0.30143651  0.47043798  0.68020799     0.06400
H566        H  0.34570694  0.45281500  0.59528777     0.06200
C567        C  0.12899383  0.40817274  0.83524423     0.03300
C568        C  0.12364679  0.43959707  0.83969834    -0.12900
C569        C  0.14588579  0.46043709  0.83029003     0.00800
C570        C  0.17394579  0.44879411  0.82028735    -0.11400
C571        C  0.17612424  0.41964207  0.80839539     0.03300
C572        C  0.15408226  0.39856210  0.81737047    -0.10800
H573        H  0.10249870  0.44753642  0.84966039     0.08800
H574        H  0.19202908  0.46471126  0.81553262     0.06400
H575        H  0.15618223  0.37515346  0.81049594     0.06200
C576        C  0.33868239  0.41252222  0.83376594     0.03300
C577        C  0.31992667  0.40216927  0.81035748    -0.12900
C578        C  0.30906259  0.42288022  0.78826921     0.00800
C579        C  0.32016185  0.45242037  0.78835142    -0.11400
C580        C  0.33038818  0.46463878  0.81547716     0.03300
C581        C  0.34172050  0.44418763  0.83798283    -0.10800
H582        H  0.31380223  0.37845595  0.80961484     0.08800
H583        H  0.31453812  0.46788694  0.76954433     0.06400
H584        H  0.35214768  0.45250039  0.85829123     0.06200
C585        C  0.34531452  0.38997912  0.60446330     0.80400
N586        N  0.33053828  0.37549866  0.58227128    -0.78000
C587        C  0.34197088  0.34907379  0.57139957     0.82800
N588        N  0.36777048  0.33649052  0.58343028    -0.77900
C589        C  0.38294456  0.35095287  0.60542296     0.82900
N590        N  0.37115621  0.37731017  0.61635476    -0.79600
O591        O  0.02019322  0.19136828  0.75730611    -0.72800
O592        O  0.01665119  0.26254873  0.70329815    -0.73800
O593        O  0.01759097  0.20165715  0.69569186    -0.62400
O594        O  0.01928319  0.25304160  0.76573751    -0.70800
O595        O  0.06920767  0.25686180  0.76448095    -0.70400
O596        O  0.06764497  0.19826373  0.69200197    -0.61600
O597        O  0.06652369  0.26320561  0.69702274    -0.74100
O598        O  0.07037689  0.19021036  0.75838490    -0.72900
Cu599      Cu  0.01724105  0.22719717  0.73072867     1.04600
Cu600      Cu  0.07071530  0.22722432  0.72807124     1.04300
C601        C  0.04479860  0.17891015  0.76658056     0.93400
C602        C  0.03990822  0.27294812  0.68952242     0.92500
C603        C  0.04122894  0.19190060  0.68210123     0.84700
C604        C  0.04341409  0.26376206  0.77659079     0.90900
C605        C  0.04566187  0.12747382  0.62647323     0.03300
C606        C  0.05631789  0.15086677  0.64480166    -0.12900
C607        C  0.03567903  0.17241791  0.65579769     0.00800
C608        C  0.00580056  0.17173378  0.64545968    -0.11400
C609        C  0.49384044  0.14474364  0.63489654     0.03300
C610        C  0.01415140  0.12288323  0.62349064    -0.10800
H611        H  0.08015148  0.15199315  0.65050136     0.08800
H612        H  0.49016558  0.19003115  0.65131004     0.06400
H613        H  0.00581794  0.10271248  0.61294357     0.06200
C614        C  0.04556358  0.33808743  0.63041056     0.03300
C615        C  0.01394817  0.34391216  0.62552078    -0.12900
C616        C  0.49251802  0.32401403  0.63903018     0.00800
C617        C  0.00407919  0.29761638  0.65378832    -0.11400
C618        C  0.03381393  0.29551597  0.66443845     0.03300
C619        C  0.05503952  0.31528873  0.65168080    -0.10800
H620        H  0.00643964  0.36334321  0.61177712     0.08800
H621        H  0.48857684  0.27965161  0.66016755     0.06400
H622        H  0.07879599  0.31263310  0.65761795     0.06200
C623        C  0.05331874  0.12424389  0.83461816     0.03300
C624        C  0.02183975  0.11981021  0.84028728    -0.12900
C625        C  0.50068955  0.12977392  0.81807966     0.00800
C626        C  0.01222552  0.13999291  0.78991460    -0.11400
C627        C  0.04126615  0.15228405  0.78781957     0.03300
C628        C  0.06257335  0.14293563  0.80969417    -0.10800
H629        H  0.01416832  0.10922424  0.86141041     0.08800
H630        H  0.49630137  0.14471928  0.77162025     0.06400
H631        H  0.08597997  0.14990870  0.80743076     0.06200
C632        C  0.05105056  0.32997314  0.83101499     0.03300
C633        C  0.01978705  0.33645923  0.83532439    -0.12900
C634        C  0.49843811  0.31611613  0.82474110     0.00800
C635        C  0.00915316  0.28852216  0.81315843    -0.11400
C636        C  0.03890009  0.28533396  0.80206414     0.03300
C637        C  0.06052593  0.30571026  0.81233063    -0.10800
H638        H  0.01237671  0.35692913  0.84655036     0.08800
H639        H  0.49261824  0.27144645  0.80802180     0.06400
H640        H  0.08423095  0.30272167  0.80623925     0.06200
O641        O  0.44006355  0.19952247  0.70288861    -0.72800
O642        O  0.44164801  0.26675537  0.75756503    -0.73800
O643        O  0.44387719  0.20457999  0.76476547    -0.62400
O644        O  0.43815225  0.26225932  0.69645422    -0.70800
O645        O  0.38804536  0.26597605  0.69903763    -0.70400
O646        O  0.39399739  0.20118659  0.76911792    -0.61600
O647        O  0.39184532  0.26789164  0.76424870    -0.74100
O648        O  0.38997267  0.19780395  0.70276923    -0.72900
Cu649      Cu  0.44209278  0.23318355  0.73021923     1.04600
Cu650      Cu  0.38866874  0.23303648  0.73380312     1.04300
C651        C  0.41589521  0.18723184  0.69399950     0.93400
C652        C  0.41813571  0.27859795  0.76963954     0.92500
C653        C  0.42078290  0.19333369  0.77808222     0.84700
C654        C  0.41349849  0.27548645  0.68838231     0.90900
C655        C  0.40875662  0.13226538  0.62836262     0.03300
C656        C  0.43999633  0.12873872  0.62168888    -0.12900
C657        C  0.46118444  0.13951894  0.64211209     0.00800
C658        C  0.45044432  0.15073852  0.66976186    -0.11400
C659        C  0.42052505  0.16149971  0.67284423     0.03300
C660        C  0.39893780  0.15068958  0.65267186    -0.10800
H661        H  0.44751122  0.11785908  0.60108473     0.08800
H662        H  0.46692491  0.15596607  0.68697880     0.06400
H663        H  0.37512566  0.15649379  0.65557445     0.06200
C664        C  0.40650195  0.33444921  0.62321811     0.03300
C665        C  0.39673218  0.31298877  0.64564252    -0.12900
C666        C  0.41715921  0.30266249  0.66788473     0.00800
C667        C  0.44538178  0.31658942  0.66879357    -0.11400
C668        C  0.45848477  0.32910434  0.64221902     0.03300
C669        C  0.43814556  0.34040695  0.61973404    -0.10800
H670        H  0.37357780  0.30504087  0.64600369     0.08800
H671        H  0.45971215  0.31201191  0.68839917     0.06400
H672        H  0.44648412  0.35315245  0.60009618     0.06200
C673        C  0.41452051  0.12453016  0.83225844     0.03300
C674        C  0.40537093  0.15006509  0.81426163    -0.12900
C675        C  0.42701255  0.17008557  0.80259894     0.00800
C676        C  0.45726601  0.16528400  0.81122627    -0.11400
C677        C  0.46765928  0.13722695  0.82362891     0.03300
C678        C  0.44583296  0.11700401  0.83554498    -0.10800
H679        H  0.38154012  0.15414450  0.80937289     0.08800
H680        H  0.47391633  0.18201913  0.80434294     0.06400
H681        H  0.45288396  0.09586508  0.84673349     0.06200
C682        C  0.41356147  0.33219768  0.83619757     0.03300
C683        C  0.40308053  0.31434553  0.81228147    -0.12900
C684        C  0.42382940  0.30362329  0.79074750     0.00800
C685        C  0.45373495  0.31354303  0.79222181    -0.11400
C686        C  0.46559048  0.32348459  0.81956931     0.03300
C687        C  0.44510889  0.33476568  0.84133585    -0.10800
H688        H  0.37919301  0.30927309  0.81040266     0.08800
H689        H  0.46950218  0.30818416  0.77398965     0.06400
H690        H  0.45333200  0.34516343  0.86167018     0.06200
C691        C  0.06780158  0.10902364  0.61014253     0.80400
N692        N  0.08078571  0.12112990  0.58455145    -0.78000
C693        C  0.10475092  0.10689235  0.57132078     0.82800
N694        N  0.11660963  0.08135205  0.58477054    -0.77900
C695        C  0.10401727  0.06924799  0.61049745     0.82900
N696        N  0.07996501  0.08356057  0.62363784    -0.79600
C697        C  0.35488262  0.88964105  0.35255729     0.80400
N698        N  0.34105755  0.87695284  0.37724694    -0.78000
C699        C  0.35257657  0.85106000  0.39053249     0.82800
N700        N  0.37714900  0.83689487  0.37811274    -0.77900
C701        C  0.39120321  0.84965214  0.35350781     0.82900
N702        N  0.37955316  0.87552577  0.34044611    -0.79600
C703        C  0.11201518  0.88615388  0.11586773     0.80400
N704        N  0.12447987  0.87275169  0.09110203    -0.78000
C705        C  0.10934522  0.85039516  0.07717040     0.82800
N706        N  0.08235921  0.84082511  0.08885336    -0.77900
C707        C  0.06971994  0.85416642  0.11354734     0.82900
N708        N  0.08501310  0.87642564  0.12732247    -0.79600
C709        C  0.39045632  0.60741338  0.34792181     0.80400
N710        N  0.37667923  0.62031624  0.37221529    -0.78000
C711        C  0.34984919  0.60986711  0.38315680     0.82800
N712        N  0.33604755  0.58695197  0.36888265    -0.77900
C713        C  0.34974617  0.57365499  0.34464952     0.82900
N714        N  0.37668307  0.58427960  0.33381981    -0.79600
C715        C  0.11657865  0.60884459  0.38813178     0.80400
N716        N  0.12906187  0.58329386  0.37616441    -0.78000
C717        C  0.11531217  0.56984629  0.35261187     0.82800
N718        N  0.08972576  0.58261562  0.34053611    -0.77900
C719        C  0.07704998  0.60805488  0.35232673     0.82900
N720        N  0.09096101  0.62157880  0.37574014    -0.79600
C721        C  0.11001952  0.88508450  0.35034548     0.80400
N722        N  0.11900211  0.87351353  0.37781336    -0.78000
C723        C  0.10516574  0.84902174  0.39074447     0.82800
N724        N  0.08285559  0.83536287  0.37533709    -0.77900
C725        C  0.07360576  0.84675321  0.34785212     0.82900
N726        N  0.08763188  0.87127231  0.33499761    -0.79600
C727        C  0.38665398  0.61578702  0.11088391     0.80400
N728        N  0.37650890  0.62718356  0.08377494    -0.78000
C729        C  0.35475292  0.61240885  0.06854259     0.82800
N730        N  0.34261830  0.58676608  0.08114836    -0.77900
C731        C  0.35285704  0.57515397  0.10816216     0.82900
N732        N  0.37437792  0.59020021  0.12330571    -0.79600
O733        O  0.25891198  0.75783430  0.06866357    -0.72800
O734        O  0.19624599  0.68865604  0.07015577    -0.73800
O735        O  0.26139612  0.69142108  0.06653473    -0.62400
O736        O  0.19108068  0.75545995  0.07138847    -0.70800
O737        O  0.19082608  0.75496035  0.02117923    -0.70400
O738        O  0.25791482  0.69719581  0.01658027    -0.61600
O739        O  0.19671773  0.69277075  0.01988953    -0.74100
O740        O  0.25356707  0.75933590  0.01874558    -0.72900
Cu741      Cu  0.22692475  0.72352503  0.07144020     1.04600
Cu742      Cu  0.22464378  0.72636095  0.01789333     1.04300
C743        C  0.26688326  0.76840274  0.04237381     0.93400
C744        C  0.18823648  0.67900561  0.04421006     0.92500
C745        C  0.26969130  0.68385277  0.03967650     0.84700
C746        C  0.17929350  0.76425177  0.04589108     0.87700
C747        C  0.12348572  0.62323114  0.04883509     0.03300
C748        C  0.14615419  0.64247268  0.05972255    -0.12900
C749        C  0.16924870  0.65199474  0.03995871     0.00800
C750        C  0.17083089  0.63920038  0.01130564    -0.11400
C751        C  0.14430027  0.62924152  0.49765521     0.03300
C752        C  0.12085598  0.61886186  0.01708770    -0.10800
H753        H  0.14577815  0.64968012  0.08309104     0.08800
H754        H  0.19054972  0.64373281  0.49704742     0.06400
H755        H  0.10110341  0.60810566  0.00795354     0.06200
C756        C  0.12452511  0.83207051  0.05385227     0.03300
C757        C  0.11911052  0.83753727  0.02234410    -0.12900
C758        C  0.12859848  0.81552697  0.50146610     0.00800
C759        C  0.13950067  0.78756711  0.01351439    -0.11400
C760        C  0.15278673  0.78573585  0.04236165     0.03300
C761        C  0.14379195  0.80754985  0.06338109    -0.10800
H762        H  0.10819548  0.85848147  0.01442978     0.08800
H763        H  0.14360306  0.76915078  0.49799192     0.06400
H764        H  0.15143511  0.80555282  0.08670730     0.06200
C765        C  0.33753687  0.62884471  0.04474574     0.03300
C766        C  0.31322498  0.64764349  0.05444500    -0.12900
C767        C  0.29300346  0.66008225  0.03316278     0.00800
C768        C  0.29636857  0.65162378  0.00292710    -0.11400
C769        C  0.32364546  0.63910498  0.49183164     0.03300
C770        C  0.34402796  0.62601417  0.01321621    -0.10800
H771        H  0.30999417  0.65216977  0.07836943     0.08800
H772        H  0.27890857  0.65837110  0.48676016     0.06400
H773        H  0.36443620  0.61427721  0.00570915     0.06200
C774        C  0.32488259  0.83248666  0.04897367     0.03300
C775        C  0.32815276  0.84015478  0.01771713    -0.12900
C776        C  0.31468079  0.82188808  0.49620598     0.00800
C777        C  0.30064807  0.79522958  0.00662810    -0.11400
C778        C  0.29154196  0.79089833  0.03687360     0.03300
C779        C  0.30494538  0.80906097  0.05866525    -0.10800
H780        H  0.34090905  0.85990470  0.01044186     0.08800
H781        H  0.29398547  0.77887563  0.49006910     0.06400
H782        H  0.30016095  0.80513032  0.08261166     0.06200
O783        O  0.20307639  0.69928060  0.44194672    -0.72800
O784        O  0.26028208  0.76551616  0.44036516    -0.73800
O785        O  0.19910457  0.76154107  0.44361252    -0.62400
O786        O  0.26588200  0.70332529  0.43896629    -0.70800
O787        O  0.26574890  0.70322466  0.38873054    -0.70400
O788        O  0.19575550  0.76734390  0.39363712    -0.61600
O789        O  0.26065703  0.76989226  0.39010345    -0.74100
O790        O  0.19785055  0.70078649  0.39200140    -0.72900
Cu791      Cu  0.23219656  0.73210498  0.44242483     1.04600
Cu792      Cu  0.22995347  0.73509169  0.38885717     1.04300
C793        C  0.18981656  0.69021865  0.41831204     0.93400
C794        C  0.26865685  0.77942010  0.41609966     0.92500
C795        C  0.18760234  0.77507720  0.42046640     0.84700
C796        C  0.27756007  0.69436525  0.41417273     0.90900
C797        C  0.13299297  0.62532359  0.41123327     0.03300
C798        C  0.15276142  0.64897137  0.40189277    -0.12900
C799        C  0.16520507  0.66763946  0.42374873     0.00800
C800        C  0.15541160  0.66352530  0.45385853    -0.11400
C801        C  0.14144106  0.63672148  0.46428678     0.03300
C802        C  0.12888607  0.61796492  0.44253212    -0.10800
H803        H  0.15813488  0.65273714  0.37804107     0.08800
H804        H  0.16172927  0.68006180  0.47038999     0.06400
H805        H  0.11627553  0.59805854  0.44964496     0.06200
C806        C  0.12132801  0.83187187  0.41489704     0.03300
C807        C  0.11472219  0.83486467  0.44645438    -0.12900
C808        C  0.13467480  0.82117965  0.46800648     0.00800
C809        C  0.16170102  0.80808360  0.45699486    -0.11400
C810        C  0.16485353  0.79937615  0.42683789     0.03300
C811        C  0.14509867  0.81231173  0.40541964    -0.10800
H812        H  0.09462430  0.84720130  0.45384113     0.08800
H813        H  0.17900919  0.80100110  0.47320083     0.06400
H814        H  0.14837125  0.80767368  0.38152238     0.06200
C815        C  0.33364081  0.62757257  0.40625921     0.03300
C816        C  0.31375182  0.65156266  0.39662628    -0.12900
C817        C  0.30447325  0.67341668  0.41752870     0.00800
C818        C  0.31810805  0.67224068  0.44619513    -0.11400
C819        C  0.32955260  0.64462161  0.45840572     0.03300
C820        C  0.33939228  0.62259211  0.43774298    -0.10800
H821        H  0.30598336  0.65320989  0.37332713     0.08800
H822        H  0.31377984  0.69073423  0.46157484     0.06400
H823        H  0.35091393  0.60202553  0.44580295     0.06200
C824        C  0.33347483  0.83478057  0.41238739     0.03300
C825        C  0.33558634  0.83943710  0.44399986    -0.12900
C826        C  0.31181989  0.82941331  0.46300447     0.00800
C827        C  0.28541903  0.81946278  0.44906637    -0.11400
C828        C  0.28742209  0.80650145  0.42048893     0.03300
C829        C  0.31090390  0.81572619  0.40110804    -0.10800
H830        H  0.35527453  0.85011036  0.45338239     0.08800
H831        H  0.26553940  0.81495590  0.46310389     0.06400
H832        H  0.31168633  0.80839761  0.37778302     0.06200
O833        O  0.26101220  0.57056525  0.19272411    -0.72800
O834        O  0.19274993  0.56635493  0.25792865    -0.73800
O835        O  0.25913824  0.56861521  0.26088637    -0.62400
O836        O  0.19589762  0.56804049  0.19111412    -0.70800
O837        O  0.20193702  0.51804681  0.19284240    -0.70400
O838        O  0.25856488  0.51849260  0.25966540    -0.61600
O839        O  0.19653530  0.51635091  0.25507976    -0.74100
O840        O  0.26312605  0.52033395  0.19662142    -0.72900
Cu841      Cu  0.22722226  0.57065779  0.22581427     1.04600
Cu842      Cu  0.23021220  0.51711399  0.22616966     1.04300
C843        C  0.27109041  0.54494598  0.18323450     0.93400
C844        C  0.18375331  0.53975612  0.26615517     0.92500
C845        C  0.26801552  0.54251749  0.27164722     0.84700
C846        C  0.18998491  0.54182209  0.18069960     0.90900
C847        C  0.12195057  0.54667415  0.12785463     0.03300
C848        C  0.11726747  0.51504112  0.12543656    -0.12900
C849        C  0.13988321  0.99466815  0.13628818     0.00800
C850        C  0.16745767  0.50679310  0.14526055    -0.11400
C851        C  0.16854800  0.53650358  0.15557927     0.03300
C852        C  0.14622316  0.55716433  0.14540993    -0.10800
H853        H  0.09667991  0.50669557  0.11555058     0.08800
H854        H  0.18623870  0.99120210  0.15015227     0.06400
H855        H  0.14777034  0.58100792  0.15065777     0.06200
C856        C  0.33492834  0.55189259  0.12428467     0.03300
C857        C  0.31279518  0.56169723  0.14558161    -0.12900
C858        C  0.29091777  0.54124827  0.15601911     0.00800
C859        C  0.28996588  0.51303945  0.14229722    -0.11400
C860        C  0.31640136  0.00012168  0.12977087     0.03300
C861        C  0.33850477  0.52036400  0.11845269    -0.10800
H862        H  0.31249425  0.58481954  0.15346830     0.08800
H863        H  0.27079890  0.99848636  0.14724826     0.06400
H864        H  0.35807010  0.51199077  0.10597472     0.06200
C865        C  0.13131350  0.54633737  0.33538145     0.03300
C866        C  0.14867433  0.55565211  0.30971616    -0.12900
C867        C  0.15980134  0.53397022  0.28959731     0.00800
C868        C  0.15123934  0.50377723  0.29449541    -0.11400
C869        C  0.13992823  0.99336807  0.32272251     0.03300
C870        C  0.12849605  0.51501506  0.34299344    -0.10800
H871        H  0.15336165  0.57950285  0.30557252     0.08800
H872        H  0.15755503  0.98706966  0.27779516     0.06400
H873        H  0.11791911  0.50780148  0.36421772     0.06200
C874        C  0.33333680  0.55057078  0.32815006     0.03300
C875        C  0.34136448  0.51936453  0.33176249    -0.12900
C876        C  0.32219803  0.99746592  0.32000109     0.00800
C877        C  0.29447725  0.50755951  0.30750910    -0.11400
C878        C  0.28997624  0.53764970  0.29721414     0.03300
C879        C  0.30888040  0.55972372  0.30899460    -0.10800
H880        H  0.36200890  0.51243131  0.34344100     0.08800
H881        H  0.27803557  0.99065976  0.30165186     0.06400
H882        H  0.30482687  0.58355186  0.30341460     0.06200
O883        O  0.19792575  0.89109680  0.20455537    -0.72800
O884        O  0.27160792  0.89173166  0.26308290    -0.73800
O885        O  0.20520889  0.89011141  0.27109805    -0.62400
O886        O  0.26523848  0.89273822  0.19801312    -0.70800
O887        O  0.25895981  0.94271387  0.19789888    -0.70400
O888        O  0.20704298  0.94029666  0.26978374    -0.61600
O889        O  0.26869372  0.94188197  0.25879845    -0.74100
O890        O  0.19674225  0.94107237  0.20799387    -0.72900
Cu891      Cu  0.23490183  0.88917371  0.23414882     1.04600
Cu892      Cu  0.23266484  0.94270864  0.23357080     1.04300
C893        C  0.18562945  0.91701682  0.19750072     0.93400
C894        C  0.28215202  0.91794935  0.26892456     0.92500
C895        C  0.19744240  0.91582935  0.28221464     0.84700
C896        C  0.27246548  0.91924407  0.18776470     0.90900
C897        C  0.12872987  0.90893829  0.13241118     0.03300
C898        C  0.14835250  0.89971860  0.15652878    -0.12900
C899        C  0.15959344  0.92164227  0.17599610     0.00800
C900        C  0.14861909  0.95153674  0.17207241    -0.11400
C901        C  0.13553776  0.96183700  0.14460517     0.03300
C902        C  0.12408025  0.94015706  0.12520043    -0.10800
H903        H  0.15453830  0.87597433  0.16002162     0.08800
H904        H  0.15459451  0.96835516  0.18848095     0.06400
H905        H  0.11201348  0.94729089  0.10480249     0.06200
C906        C  0.32913576  0.91358178  0.12147966     0.03300
C907        C  0.30904982  0.90386378  0.14492040    -0.12900
C908        C  0.29690844  0.92507090  0.16488607     0.00800
C909        C  0.30726414  0.95481480  0.16235411    -0.11400
C910        C  0.32050447  0.96635571  0.13541922     0.03300
C911        C  0.33322086  0.94515149  0.11527008    -0.10800
H912        H  0.30341732  0.88007712  0.14773967     0.08800
H913        H  0.30143655  0.97043805  0.18020793     0.06400
H914        H  0.34570679  0.95281484  0.09528779     0.06200
C915        C  0.12899384  0.90817277  0.33524428     0.03300
C916        C  0.12364679  0.93959714  0.33969832    -0.12900
C917        C  0.14588581  0.96043713  0.33029009     0.00800
C918        C  0.17394587  0.94879420  0.32028740    -0.11400
C919        C  0.17612424  0.91964209  0.30839542     0.03300
C920        C  0.15408228  0.89856226  0.31737059    -0.10800
H921        H  0.10249860  0.94753652  0.34966029     0.08800
H922        H  0.19202889  0.96471108  0.31553274     0.06400
H923        H  0.15618232  0.87515287  0.31049589     0.06200
C924        C  0.33868241  0.91252218  0.33376592     0.03300
C925        C  0.31992669  0.90216911  0.31035739    -0.12900
C926        C  0.30906262  0.92288028  0.28826918     0.00800
C927        C  0.32016184  0.95242041  0.28835151    -0.11400
C928        C  0.33038817  0.96463877  0.31547728     0.03300
C929        C  0.34172049  0.94418755  0.33798292    -0.10800
H930        H  0.31380253  0.87845671  0.30961469     0.08800
H931        H  0.31453811  0.96788704  0.26954443     0.06400
H932        H  0.35214764  0.95250024  0.35829131     0.06200
C933        C  0.34531455  0.88997909  0.10446323     0.80400
N934        N  0.33053835  0.87549856  0.08227123    -0.78000
C935        C  0.34197100  0.84907370  0.07139957     0.82800
N936        N  0.36777060  0.83649047  0.08343031    -0.77900
C937        C  0.38294465  0.85095289  0.10542294     0.82900
N938        N  0.37115629  0.87731021  0.11635467    -0.79600
O939        O  0.02019324  0.69136821  0.25730622    -0.72800
O940        O  0.01665121  0.76254867  0.20329820    -0.73800
O941        O  0.01759100  0.70165712  0.19569198    -0.62400
O942        O  0.01928320  0.75304156  0.26573760    -0.70800
O943        O  0.06920769  0.75686168  0.26448099    -0.70400
O944        O  0.06764500  0.69826363  0.19200201    -0.61600
O945        O  0.06652370  0.76320554  0.19702281    -0.74100
O946        O  0.07037692  0.69021023  0.25838488    -0.72900
Cu947      Cu  0.01724106  0.72719710  0.23072877     1.04600
Cu948      Cu  0.07071532  0.72722420  0.22807129     1.04300
C949        C  0.04479864  0.67891009  0.26658062     0.93400
C950        C  0.03990826  0.77294807  0.18952247     0.92500
C951        C  0.04122895  0.69190054  0.18210133     0.84700
C952        C  0.04341411  0.76376196  0.27659086     0.90900
C953        C  0.04566190  0.62747387  0.12647326     0.03300
C954        C  0.05631790  0.65086678  0.14480176    -0.12900
C955        C  0.03567901  0.67241786  0.15579782     0.00800
C956        C  0.00580055  0.67173378  0.14545978    -0.11400
C957        C  0.49384038  0.64474348  0.13489674     0.03300
C958        C  0.01415142  0.62288319  0.12349078    -0.10800
H959        H  0.08015145  0.65199318  0.15050146     0.08800
H960        H  0.49016580  0.69003052  0.15131023     0.06400
H961        H  0.00581802  0.60271253  0.11294381     0.06200
C962        C  0.04556362  0.83808738  0.13041054     0.03300
C963        C  0.01394820  0.84391229  0.12552082    -0.12900
C964        C  0.49251807  0.82401398  0.13903012     0.00800
C965        C  0.00407923  0.79761644  0.15378843    -0.11400
C966        C  0.03381398  0.79551597  0.16443849     0.03300
C967        C  0.05503971  0.81528869  0.15168080    -0.10800
H968        H  0.00643982  0.86334295  0.11177748     0.08800
H969        H  0.48857666  0.77965131  0.16016764     0.06400
H970        H  0.07879542  0.81263316  0.15761771     0.06200
C971        C  0.05331881  0.62424396  0.33461824     0.03300
C972        C  0.02183977  0.61981026  0.34028742    -0.12900
C973        C  0.50068959  0.62977402  0.31807975     0.00800
C974        C  0.01222557  0.63999293  0.28991464    -0.11400
C975        C  0.04126620  0.65228407  0.28781966     0.03300
C976        C  0.06257352  0.64293574  0.30969427    -0.10800
H977        H  0.01416851  0.60922457  0.36140997     0.08800
H978        H  0.49630137  0.64471938  0.27162027     0.06400
H979        H  0.08597946  0.64990856  0.30743091     0.06200
C980        C  0.05105061  0.82997311  0.33101495     0.03300
C981        C  0.01978712  0.83645912  0.33532449    -0.12900
C982        C  0.49843819  0.81611611  0.32474111     0.00800
C983        C  0.00915318  0.78852208  0.31315846    -0.11400
C984        C  0.03890016  0.78533387  0.30206420     0.03300
C985        C  0.06052598  0.80571025  0.31233055    -0.10800
H986        H  0.01237680  0.85692899  0.34655055     0.08800
H987        H  0.49261826  0.77144623  0.30802194     0.06400
H988        H  0.08423093  0.80272169  0.30623911     0.06200
O989        O  0.44006356  0.69952239  0.20288865    -0.72800
O990        O  0.44164805  0.76675537  0.25756493    -0.73800
O991        O  0.44387726  0.70458006  0.26476546    -0.62400
O992        O  0.43815228  0.76225926  0.19645413    -0.70800
O993        O  0.38804543  0.76597615  0.19903773    -0.70400
O994        O  0.39399749  0.70118661  0.26911794    -0.61600
O995        O  0.39184539  0.76789168  0.26424871    -0.74100
O996        O  0.38997270  0.69780392  0.20276929    -0.72900
Cu997      Cu  0.44209281  0.73318355  0.23021917     1.04600
Cu998      Cu  0.38866889  0.73303651  0.23380314     1.04300
C999        C  0.41589522  0.68723180  0.19399953     0.93400
C1000       C  0.41813582  0.77859793  0.26963951     0.92500
C1001       C  0.42078298  0.69333376  0.27808227     0.84700
C1002       C  0.41349853  0.77548651  0.18838235     0.90900
C1003       C  0.40875660  0.63226533  0.12836267     0.03300
C1004       C  0.43999631  0.62873857  0.12168899    -0.12900
C1005       C  0.46118437  0.63951879  0.14211224     0.00800
C1006       C  0.45044420  0.65073837  0.16976197    -0.11400
C1007       C  0.42052501  0.66149973  0.17284419     0.03300
C1008       C  0.39893777  0.65068966  0.15267178    -0.10800
H1009       H  0.44751122  0.61785891  0.10108488     0.08800
H1010       H  0.46692477  0.65596583  0.18697901     0.06400
H1011       H  0.37512563  0.65649396  0.15557429     0.06200
C1012       C  0.40650205  0.83444925  0.12321814     0.03300
C1013       C  0.39673222  0.81298878  0.14564255    -0.12900
C1014       C  0.41715929  0.80266256  0.16788480     0.00800
C1015       C  0.44538184  0.81658946  0.16879355    -0.11400
C1016       C  0.45848485  0.82910431  0.14221899     0.03300
C1017       C  0.43814564  0.84040697  0.11973402    -0.10800
H1018       H  0.37357817  0.80504101  0.14600375     0.08800
H1019       H  0.45971241  0.81201188  0.18839937     0.06400
H1020       H  0.44648418  0.85315240  0.10009629     0.06200
C1021       C  0.41452057  0.62453018  0.33225837     0.03300
C1022       C  0.40537097  0.65006514  0.31426159    -0.12900
C1023       C  0.42701262  0.67008567  0.30259900     0.00800
C1024       C  0.45726601  0.66528404  0.31122630    -0.11400
C1025       C  0.46765934  0.63722705  0.32362897     0.03300
C1026       C  0.44583299  0.61700413  0.33554493    -0.10800
H1027       H  0.38154032  0.65414451  0.30937287     0.08800
H1028       H  0.47391659  0.68201943  0.30434280     0.06400
H1029       H  0.45288415  0.59586480  0.34673367     0.06200
C1030       C  0.41356149  0.83219762  0.33619752     0.03300
C1031       C  0.40308062  0.81434543  0.31228141    -0.12900
C1032       C  0.42382949  0.80362319  0.29074753     0.00800
C1033       C  0.45373519  0.81354287  0.29222168    -0.11400
C1034       C  0.46559054  0.82348456  0.31956932     0.03300
C1035       C  0.44510888  0.83476554  0.34133573    -0.10800
H1036       H  0.37919300  0.80927299  0.31040255     0.08800
H1037       H  0.46950166  0.80818426  0.27399045     0.06400
H1038       H  0.45333217  0.84516356  0.36167066     0.06200
C1039       C  0.06780161  0.60902370  0.11014250     0.80400
N1040       N  0.08078574  0.62112994  0.08455142    -0.78000
C1041       C  0.10475094  0.60689236  0.07132075     0.82800
N1042       N  0.11660961  0.58135202  0.08477048    -0.77900
C1043       C  0.10401726  0.56924799  0.11049742     0.82900
N1044       N  0.07996502  0.58356063  0.12363780    -0.79600
C1045       C  0.35488261  0.88964101  0.85255730     0.80400
N1046       N  0.34105756  0.87695280  0.87724698    -0.78000
C1047       C  0.35257658  0.85105996  0.89053250     0.82800
N1048       N  0.37714895  0.83689479  0.87811271    -0.77900
C1049       C  0.39120319  0.84965210  0.85350780     0.82900
N1050       N  0.37955314  0.87552573  0.84044612    -0.79600
C1051       C  0.11201516  0.88615389  0.61586762     0.80400
N1052       N  0.12447986  0.87275169  0.59110193    -0.78000
C1053       C  0.10934519  0.85039517  0.57717032     0.82800
N1054       N  0.08235919  0.84082509  0.58885327    -0.77900
C1055       C  0.06971994  0.85416639  0.61354729     0.82900
N1056       N  0.08501309  0.87642563  0.62732237    -0.79600
C1057       C  0.39045626  0.60741338  0.84792177     0.80400
N1058       N  0.37667918  0.62031624  0.87221527    -0.78000
C1059       C  0.34984916  0.60986709  0.88315682     0.82800
N1060       N  0.33604747  0.58695205  0.86888259    -0.77900
C1061       C  0.34974610  0.57365497  0.84464949     0.82900
N1062       N  0.37668305  0.58427955  0.83381981    -0.79600
C1063       C  0.11657859  0.60884459  0.88813177     0.80400
N1064       N  0.12906186  0.58329391  0.87616441    -0.78000
C1065       C  0.11531217  0.56984630  0.85261186     0.82800
N1066       N  0.08972572  0.58261557  0.84053615    -0.77900
C1067       C  0.07704992  0.60805483  0.85232674     0.82900
N1068       N  0.09096098  0.62157881  0.87574011    -0.79600
C1069       C  0.11001952  0.88508447  0.85034547     0.80400
N1070       N  0.11900212  0.87351353  0.87781336    -0.78000
C1071       C  0.10516572  0.84902176  0.89074450     0.82800
N1072       N  0.08285559  0.83536286  0.87533714    -0.77900
C1073       C  0.07360572  0.84675319  0.84785218     0.82900
N1074       N  0.08763181  0.87127233  0.83499768    -0.79600
C1075       C  0.38665394  0.61578702  0.61088387     0.80400
N1076       N  0.37650880  0.62718355  0.58377489    -0.78000
C1077       C  0.35475290  0.61240878  0.56854251     0.82800
N1078       N  0.34261827  0.58676600  0.58114829    -0.77900
C1079       C  0.35285703  0.57515393  0.60816213     0.82900
N1080       N  0.37437791  0.59020017  0.62330564    -0.79600
O1081       O  0.25891198  0.75783426  0.56866358    -0.72800
O1082       O  0.19624598  0.68865598  0.57015582    -0.73800
O1083       O  0.26139611  0.69142103  0.56653473    -0.62400
O1084       O  0.19108068  0.75545992  0.57138844    -0.70800
O1085       O  0.19082608  0.75496036  0.52117921    -0.70400
O1086       O  0.25791481  0.69719576  0.51658029    -0.61600
O1087       O  0.19671768  0.69277080  0.51988961    -0.74100
O1088       O  0.25356706  0.75933584  0.51874561    -0.72900
Cu1089     Cu  0.22692474  0.72352499  0.57144015     1.04600
Cu1090     Cu  0.22464376  0.72636093  0.51789340     1.04300
C1091       C  0.26688327  0.76840270  0.54237380     0.93400
C1092       C  0.18823645  0.67900560  0.54421012     0.92500
C1093       C  0.26969129  0.68385271  0.53967651     0.84700
C1094       C  0.17929351  0.76425179  0.54589107     0.87700
C1095       C  0.12348567  0.62323112  0.54883507     0.03300
C1096       C  0.14615408  0.64247267  0.55972241    -0.12900
C1097       C  0.16924866  0.65199474  0.53995869     0.00800
C1098       C  0.17083080  0.63920027  0.51130576    -0.11400
C1099       C  0.14430018  0.62924166  0.99765519     0.03300
C1100       C  0.12085590  0.61886173  0.51708765    -0.10800
H1101       H  0.14577802  0.64968029  0.58309140     0.08800
H1102       H  0.19054903  0.64373272  0.99704780     0.06400
H1103       H  0.10110371  0.60810571  0.50795363     0.06200
C1104       C  0.12452510  0.83207050  0.55385221     0.03300
C1105       C  0.11911050  0.83753727  0.52234405    -0.12900
C1106       C  0.12859850  0.81552702  0.00146612     0.00800
C1107       C  0.13950065  0.78756710  0.51351442    -0.11400
C1108       C  0.15278671  0.78573583  0.54236164     0.03300
C1109       C  0.14379195  0.80754983  0.56338124    -0.10800
H1110       H  0.10819557  0.85848127  0.51442973     0.08800
H1111       H  0.14360303  0.76915093  0.99799200     0.06400
H1112       H  0.15143479  0.80555287  0.58670660     0.06200
C1113       C  0.33753685  0.62884467  0.54474567     0.03300
C1114       C  0.31322497  0.64764344  0.55444498    -0.12900
C1115       C  0.29300345  0.66008220  0.53316278     0.00800
C1116       C  0.29636852  0.65162377  0.50292705    -0.11400
C1117       C  0.32364546  0.63910498  0.99183169     0.03300
C1118       C  0.34402796  0.62601427  0.51321614    -0.10800
H1119       H  0.30999418  0.65216966  0.57836938     0.08800
H1120       H  0.27890845  0.65837121  0.98676002     0.06400
H1121       H  0.36443634  0.61427727  0.50570898     0.06200
C1122       C  0.32488248  0.83248671  0.54897366     0.03300
C1123       C  0.32815274  0.84015499  0.51771707    -0.12900
C1124       C  0.31468090  0.82188802  0.99620600     0.00800
C1125       C  0.30064807  0.79522963  0.50662807    -0.11400
C1126       C  0.29154196  0.79089829  0.53687356     0.03300
C1127       C  0.30494540  0.80906097  0.55866510    -0.10800
H1128       H  0.34090850  0.85990417  0.51044210     0.08800
H1129       H  0.29398555  0.77887581  0.99006932     0.06400
H1130       H  0.30016084  0.80513019  0.58261208     0.06200
O1131       O  0.20307637  0.69928055  0.94194666    -0.72800
O1132       O  0.26028207  0.76551611  0.94036508    -0.73800
O1133       O  0.19910455  0.76154103  0.94361243    -0.62400
O1134       O  0.26588197  0.70332525  0.93896629    -0.70800
O1135       O  0.26574887  0.70322462  0.88873055    -0.70400
O1136       O  0.19575549  0.76734388  0.89363705    -0.61600
O1137       O  0.26065704  0.76989222  0.89010339    -0.74100
O1138       O  0.19785048  0.70078658  0.89200137    -0.72900
Cu1139     Cu  0.23219654  0.73210493  0.94242475     1.04600
Cu1140     Cu  0.22995346  0.73509167  0.88885720     1.04300
C1141       C  0.18981646  0.69021871  0.91831196     0.93400
C1142       C  0.26865683  0.77942007  0.91609962     0.92500
C1143       C  0.18760232  0.77507716  0.92046634     0.84700
C1144       C  0.27756006  0.69436523  0.91417274     0.90900
C1145       C  0.13299294  0.62532359  0.91123325     0.03300
C1146       C  0.15276138  0.64897138  0.90189259    -0.12900
C1147       C  0.16520491  0.66763958  0.92374863     0.00800
C1148       C  0.15541145  0.66352539  0.95385838    -0.11400
C1149       C  0.14144094  0.63672164  0.96428675     0.03300
C1150       C  0.12888603  0.61796492  0.94253211    -0.10800
H1151       H  0.15813475  0.65273696  0.87804151     0.08800
H1152       H  0.16172929  0.68006211  0.97039010     0.06400
H1153       H  0.11627569  0.59805872  0.94964494     0.06200
C1154       C  0.12132803  0.83187190  0.91489705     0.03300
C1155       C  0.11472217  0.83486466  0.94645440    -0.12900
C1156       C  0.13467479  0.82117963  0.96800646     0.00800
C1157       C  0.16170107  0.80808352  0.95699488    -0.11400
C1158       C  0.16485350  0.79937612  0.92683783     0.03300
C1159       C  0.14509868  0.81231172  0.90541950    -0.10800
H1160       H  0.09462445  0.84720117  0.95384109     0.08800
H1161       H  0.17900879  0.80100121  0.97320043     0.06400
H1162       H  0.14837115  0.80767383  0.88152290     0.06200
C1163       C  0.33364081  0.62757257  0.90625928     0.03300
C1164       C  0.31375179  0.65156263  0.89662636    -0.12900
C1165       C  0.30447326  0.67341672  0.91752873     0.00800
C1166       C  0.31810808  0.67224067  0.94619509    -0.11400
C1167       C  0.32955262  0.64462168  0.95840579     0.03300
C1168       C  0.33939227  0.62259225  0.93774303    -0.10800
H1169       H  0.30598321  0.65320979  0.87332704     0.08800
H1170       H  0.31377972  0.69073477  0.96157525     0.06400
H1171       H  0.35091418  0.60202521  0.94580323     0.06200
C1172       C  0.33347483  0.83478052  0.91238740     0.03300
C1173       C  0.33558634  0.83943707  0.94399986    -0.12900
C1174       C  0.31181991  0.82941326  0.96300449     0.00800
C1175       C  0.28541903  0.81946272  0.94906641    -0.11400
C1176       C  0.28742207  0.80650142  0.92048892     0.03300
C1177       C  0.31090390  0.81572615  0.90110808    -0.10800
H1178       H  0.35527455  0.85011034  0.95338239     0.08800
H1179       H  0.26553945  0.81495582  0.96310390     0.06400
H1180       H  0.31168634  0.80839752  0.87778295     0.06200
O1181       O  0.26101220  0.57056527  0.69272416    -0.72800
O1182       O  0.19274991  0.56635489  0.75792863    -0.73800
O1183       O  0.25913824  0.56861518  0.76088632    -0.62400
O1184       O  0.19589749  0.56804046  0.69111418    -0.70800
O1185       O  0.20193693  0.51804681  0.69284240    -0.70400
O1186       O  0.25856489  0.51849260  0.75966532    -0.61600
O1187       O  0.19653533  0.51635088  0.75507984    -0.74100
O1188       O  0.26312600  0.52033399  0.69662138    -0.72900
Cu1189     Cu  0.22722223  0.57065775  0.72581430     1.04600
Cu1190     Cu  0.23021217  0.51711407  0.72616967     1.04300
C1191       C  0.27109037  0.54494601  0.68323447     0.93400
C1192       C  0.18375331  0.53975610  0.76615521     0.92500
C1193       C  0.26801552  0.54251746  0.77164715     0.84700
C1194       C  0.18998482  0.54182209  0.68069960     0.90900
C1195       C  0.12195055  0.54667411  0.62785459     0.03300
C1196       C  0.11726744  0.51504108  0.62543659    -0.12900
C1197       C  0.13988312  0.99466812  0.63628809     0.00800
C1198       C  0.16745760  0.50679311  0.64526055    -0.11400
C1199       C  0.16854795  0.53650358  0.65557925     0.03300
C1200       C  0.14622313  0.55716431  0.64540984    -0.10800
H1201       H  0.09667978  0.50669548  0.61555066     0.08800
H1202       H  0.18623891  0.99120185  0.65015226     0.06400
H1203       H  0.14777030  0.58100804  0.65065768     0.06200
C1204       C  0.33492833  0.55189255  0.62428466     0.03300
C1205       C  0.31279513  0.56169720  0.64558153    -0.12900
C1206       C  0.29091765  0.54124828  0.65601900     0.00800
C1207       C  0.28996586  0.51303944  0.64229714    -0.11400
C1208       C  0.31640139  0.00012171  0.62977095     0.03300
C1209       C  0.33850480  0.52036394  0.61845261    -0.10800
H1210       H  0.31249419  0.58481952  0.65346824     0.08800
H1211       H  0.27079908  0.99848656  0.64724815     0.06400
H1212       H  0.35806977  0.51199087  0.60597486     0.06200
C1213       C  0.13131353  0.54633738  0.83538147     0.03300
C1214       C  0.14867431  0.55565214  0.80971615    -0.12900
C1215       C  0.15980134  0.53397021  0.78959733     0.00800
C1216       C  0.15123924  0.50377730  0.79449542    -0.11400
C1217       C  0.13992821  0.99336806  0.82272249     0.03300
C1218       C  0.12849605  0.51501506  0.84299344    -0.10800
H1219       H  0.15336161  0.57950280  0.80557248     0.08800
H1220       H  0.15755495  0.98706980  0.77779522     0.06400
H1221       H  0.11791917  0.50780147  0.86421775     0.06200
C1222       C  0.33333669  0.55057074  0.82815010     0.03300
C1223       C  0.34136435  0.51936449  0.83176239    -0.12900
C1224       C  0.32219797  0.99746589  0.82000112     0.00800
C1225       C  0.29447706  0.50755940  0.80750903    -0.11400
C1226       C  0.28997615  0.53764969  0.79721412     0.03300
C1227       C  0.30888030  0.55972365  0.80899463    -0.10800
H1228       H  0.36200897  0.51243118  0.84344092     0.08800
H1229       H  0.27803542  0.99065961  0.80165185     0.06400
H1230       H  0.30482683  0.58355196  0.80341458     0.06200
O1231       O  0.19792567  0.89109676  0.70455533    -0.72800
O1232       O  0.27160785  0.89173162  0.76308294    -0.73800
O1233       O  0.20520879  0.89011139  0.77109795    -0.62400
O1234       O  0.26523841  0.89273818  0.69801312    -0.70800
O1235       O  0.25895972  0.94271382  0.69789883    -0.70400
O1236       O  0.20704301  0.94029664  0.76978378    -0.61600
O1237       O  0.26869370  0.94188192  0.75879852    -0.74100
O1238       O  0.19674220  0.94107233  0.70799390    -0.72900
Cu1239     Cu  0.23490172  0.88917367  0.73414878     1.04600
Cu1240     Cu  0.23266482  0.94270859  0.73357084     1.04300
C1241       C  0.18562940  0.91701677  0.69750069     0.93400
C1242       C  0.28215198  0.91794930  0.76892462     0.92500
C1243       C  0.19744238  0.91582931  0.78221462     0.84700
C1244       C  0.27246539  0.91924402  0.68776466     0.90900
C1245       C  0.12872983  0.90893830  0.63241105     0.03300
C1246       C  0.14835252  0.89971847  0.65652869    -0.12900
C1247       C  0.15959339  0.92164226  0.67599604     0.00800
C1248       C  0.14861907  0.95153665  0.67207229    -0.11400
C1249       C  0.13553770  0.96183698  0.64460508     0.03300
C1250       C  0.12408024  0.94015699  0.62520050    -0.10800
H1251       H  0.15453814  0.87597491  0.66002136     0.08800
H1252       H  0.15459463  0.96835539  0.68848110     0.06400
H1253       H  0.11201290  0.94729117  0.60480175     0.06200
C1254       C  0.32913576  0.91358185  0.62147969     0.03300
C1255       C  0.30904983  0.90386377  0.64492041    -0.12900
C1256       C  0.29690843  0.92507087  0.66488610     0.00800
C1257       C  0.30726411  0.95481478  0.66235417    -0.11400
C1258       C  0.32050445  0.96635575  0.63541932     0.03300
C1259       C  0.33322086  0.94515158  0.61527013    -0.10800
H1260       H  0.30341737  0.88007727  0.64773963     0.08800
H1261       H  0.30143644  0.97043810  0.68020806     0.06400
H1262       H  0.34570675  0.95281497  0.59528797     0.06200
C1263       C  0.12899384  0.90817275  0.83524422     0.03300
C1264       C  0.12364676  0.93959711  0.83969834    -0.12900
C1265       C  0.14588581  0.96043711  0.83029002     0.00800
C1266       C  0.17394580  0.94879415  0.82028734    -0.11400
C1267       C  0.17612425  0.91964208  0.80839538     0.03300
C1268       C  0.15408226  0.89856223  0.81737050    -0.10800
H1269       H  0.10249886  0.94753636  0.84966024     0.08800
H1270       H  0.19202909  0.96471128  0.81553259     0.06400
H1271       H  0.15618230  0.87515300  0.81049580     0.06200
C1272       C  0.33868240  0.91252214  0.83376595     0.03300
C1273       C  0.31992666  0.90216907  0.81035743    -0.12900
C1274       C  0.30906260  0.92288022  0.78826922     0.00800
C1275       C  0.32016184  0.95242037  0.78835149    -0.11400
C1276       C  0.33038816  0.96463874  0.81547729     0.03300
C1277       C  0.34172050  0.94418751  0.83798288    -0.10800
H1278       H  0.31380251  0.87845665  0.80961476     0.08800
H1279       H  0.31453814  0.96788692  0.76954452     0.06400
H1280       H  0.35214776  0.95250025  0.85829138     0.06200
C1281       C  0.34531453  0.88997916  0.60446325     0.80400
N1282       N  0.33053826  0.87549866  0.58227125    -0.78000
C1283       C  0.34197087  0.84907379  0.57139958     0.82800
N1284       N  0.36777048  0.83649054  0.58343026    -0.77900
C1285       C  0.38294461  0.85095292  0.60542289     0.82900
N1286       N  0.37115626  0.87731024  0.61635465    -0.79600
O1287       O  0.02019323  0.69136817  0.75730615    -0.72800
O1288       O  0.01665132  0.76254871  0.70329831    -0.73800
O1289       O  0.01759099  0.70165717  0.69569192    -0.62400
O1290       O  0.01928319  0.75304154  0.76573764    -0.70800
O1291       O  0.06920768  0.75686163  0.76448098    -0.70400
O1292       O  0.06764499  0.69826368  0.69200197    -0.61600
O1293       O  0.06652380  0.76320548  0.69702274    -0.74100
O1294       O  0.07037690  0.69021021  0.75838488    -0.72900
Cu1295     Cu  0.01724106  0.72719714  0.73072880     1.04600
Cu1296     Cu  0.07071533  0.72722418  0.72807124     1.04300
C1297       C  0.04479863  0.67891003  0.76658057     0.93400
C1298       C  0.03990835  0.77294805  0.68952250     0.92500
C1299       C  0.04122894  0.69190060  0.68210126     0.84700
C1300       C  0.04341411  0.76376194  0.77659087     0.90900
C1301       C  0.04566188  0.62747383  0.62647330     0.03300
C1302       C  0.05631789  0.65086680  0.64480168    -0.12900
C1303       C  0.03567903  0.67241792  0.65579772     0.00800
C1304       C  0.00580052  0.67173377  0.64545978    -0.11400
C1305       C  0.49384036  0.64474346  0.63489668     0.03300
C1306       C  0.01415139  0.62288313  0.62349070    -0.10800
H1307       H  0.08015144  0.65199321  0.65050137     0.08800
H1308       H  0.49016568  0.69003059  0.65131022     0.06400
H1309       H  0.00581811  0.60271273  0.61294388     0.06200
C1310       C  0.04556362  0.83808735  0.63041055     0.03300
C1311       C  0.01394824  0.84391213  0.62552097    -0.12900
C1312       C  0.49251806  0.82401403  0.63903021     0.00800
C1313       C  0.00407924  0.79761641  0.65378853    -0.11400
C1314       C  0.03381399  0.79551595  0.66443856     0.03300
C1315       C  0.05503972  0.81528866  0.65168086    -0.10800
H1316       H  0.00643958  0.86334345  0.61177714     0.08800
H1317       H  0.48857672  0.77965141  0.66016763     0.06400
H1318       H  0.07879542  0.81263314  0.65761775     0.06200
C1319       C  0.05331877  0.62424391  0.83461826     0.03300
C1320       C  0.02183978  0.61981025  0.84028732    -0.12900
C1321       C  0.50068956  0.62977397  0.81807966     0.00800
C1322       C  0.01222557  0.63999290  0.78991463    -0.11400
C1323       C  0.04126620  0.65228401  0.78781964     0.03300
C1324       C  0.06257350  0.64293572  0.80969429    -0.10800
H1325       H  0.01416828  0.60922423  0.86141046     0.08800
H1326       H  0.49630139  0.64471931  0.77162026     0.06400
H1327       H  0.08597944  0.64990855  0.80743096     0.06200
C1328       C  0.05105061  0.82997306  0.83101500     0.03300
C1329       C  0.01978712  0.83645907  0.83532441    -0.12900
C1330       C  0.49843816  0.81611606  0.82474117     0.00800
C1331       C  0.00915321  0.78852202  0.81315849    -0.11400
C1332       C  0.03890017  0.78533387  0.80206418     0.03300
C1333       C  0.06052596  0.80571021  0.81233060    -0.10800
H1334       H  0.01237669  0.85692919  0.84655059     0.08800
H1335       H  0.49261792  0.77144585  0.80802186     0.06400
H1336       H  0.08423109  0.80272163  0.80623912     0.06200
O1337       O  0.44006355  0.69952236  0.70288865    -0.72800
O1338       O  0.44164805  0.76675532  0.75756499    -0.73800
O1339       O  0.44387726  0.70458005  0.76476549    -0.62400
O1340       O  0.43815224  0.76225922  0.69645406    -0.70800
O1341       O  0.38804537  0.76597611  0.69903766    -0.70400
O1342       O  0.39399746  0.70118653  0.76911787    -0.61600
O1343       O  0.39184536  0.76789168  0.76424866    -0.74100
O1344       O  0.38997267  0.69780398  0.70276922    -0.72900
Cu1345     Cu  0.44209279  0.73318351  0.73021920     1.04600
Cu1346     Cu  0.38866876  0.73303650  0.73380311     1.04300
C1347       C  0.41589521  0.68723179  0.69399953     0.93400
C1348       C  0.41813579  0.77859795  0.76963946     0.92500
C1349       C  0.42078297  0.69333369  0.77808222     0.84700
C1350       C  0.41349849  0.77548644  0.68838225     0.90900
C1351       C  0.40875657  0.63226535  0.62836262     0.03300
C1352       C  0.43999627  0.62873870  0.62168897    -0.12900
C1353       C  0.46118436  0.63951874  0.64211222     0.00800
C1354       C  0.45044425  0.65073832  0.66976206    -0.11400
C1355       C  0.42052498  0.66149966  0.67284425     0.03300
C1356       C  0.39893778  0.65068961  0.65267182    -0.10800
H1357       H  0.44751128  0.61785899  0.60108453     0.08800
H1358       H  0.46692453  0.65596568  0.68697877     0.06400
H1359       H  0.37512551  0.65649392  0.65557434     0.06200
C1360       C  0.40650202  0.83444924  0.62321804     0.03300
C1361       C  0.39673221  0.81298883  0.64564248    -0.12900
C1362       C  0.41715921  0.80266254  0.66788472     0.00800
C1363       C  0.44538178  0.81658942  0.66879355    -0.11400
C1364       C  0.45848481  0.82910428  0.64221899     0.03300
C1365       C  0.43814564  0.84040696  0.61973401    -0.10800
H1366       H  0.37357781  0.80504097  0.64600364     0.08800
H1367       H  0.45971220  0.81201187  0.68839923     0.06400
H1368       H  0.44648425  0.85315249  0.60009622     0.06200
C1369       C  0.41452054  0.62453020  0.83225842     0.03300
C1370       C  0.40537095  0.65006514  0.81426161    -0.12900
C1371       C  0.42701261  0.67008560  0.80259895     0.00800
C1372       C  0.45726604  0.66528404  0.81122629    -0.11400
C1373       C  0.46765931  0.63722698  0.82362892     0.03300
C1374       C  0.44583296  0.61700411  0.83554498    -0.10800
H1375       H  0.38154028  0.65414453  0.80937288     0.08800
H1376       H  0.47391638  0.68201919  0.80434294     0.06400
H1377       H  0.45288408  0.59586488  0.84673368     0.06200
C1378       C  0.41356148  0.83219759  0.83619753     0.03300
C1379       C  0.40308062  0.81434541  0.81228144    -0.12900
C1380       C  0.42382947  0.80362325  0.79074745     0.00800
C1381       C  0.45373513  0.81354288  0.79222176    -0.11400
C1382       C  0.46559053  0.82348455  0.81956932     0.03300
C1383       C  0.44510893  0.83476568  0.84133585    -0.10800
H1384       H  0.37919299  0.80927294  0.81040261     0.08800
H1385       H  0.46950200  0.80818408  0.77399012     0.06400
H1386       H  0.45333187  0.84516333  0.86166993     0.06200
C1387       C  0.06780159  0.60902368  0.61014257     0.80400
N1388       N  0.08078572  0.62112993  0.58455149    -0.78000
C1389       C  0.10475089  0.60689236  0.57132079     0.82800
N1390       N  0.11660956  0.58135200  0.58477051    -0.77900
C1391       C  0.10401719  0.56924795  0.61049742     0.82900
N1392       N  0.07996500  0.58356058  0.62363785    -0.79600
C1393       C  0.85488262  0.38964110  0.35255726     0.80400
N1394       N  0.84105755  0.37695291  0.37724694    -0.78000
C1395       C  0.85257652  0.35106003  0.39053247     0.82800
N1396       N  0.87714893  0.33689487  0.37811273    -0.77900
C1397       C  0.89120316  0.34965213  0.35350779     0.82900
N1398       N  0.87955312  0.37552575  0.34044607    -0.79600
C1399       C  0.61201520  0.38615378  0.11586771     0.80400
N1400       N  0.62447989  0.37275155  0.09110204    -0.78000
C1401       C  0.60934519  0.35039507  0.07717039     0.82800
N1402       N  0.58235916  0.34082507  0.08885334    -0.77900
C1403       C  0.56971993  0.35416637  0.11354735     0.82900
N1404       N  0.58501314  0.37642556  0.12732248    -0.79600
C1405       C  0.89045636  0.10741334  0.34792174     0.80400
N1406       N  0.87667933  0.12031622  0.37221524    -0.78000
C1407       C  0.84984930  0.10986712  0.38315680     0.82800
N1408       N  0.83604759  0.08695204  0.36888264    -0.77900
C1409       C  0.84974618  0.07365495  0.34464955     0.82900
N1410       N  0.87668308  0.08427953  0.33381979    -0.79600
C1411       C  0.61657866  0.10884462  0.38813172     0.80400
N1412       N  0.62906195  0.08329396  0.37616432    -0.78000
C1413       C  0.61531219  0.06984629  0.35261184     0.82800
N1414       N  0.58972574  0.08261557  0.34053613    -0.77900
C1415       C  0.57704993  0.10805482  0.35232672     0.82900
N1416       N  0.59096098  0.12157877  0.37574014    -0.79600
C1417       C  0.61001947  0.38508447  0.35034555     0.80400
N1418       N  0.61900211  0.37351344  0.37781339    -0.78000
C1419       C  0.60516571  0.34902163  0.39074447     0.82800
N1420       N  0.58285557  0.33536279  0.37533708    -0.77900
C1421       C  0.57360570  0.34675318  0.34785214     0.82900
N1422       N  0.58763177  0.37127238  0.33499771    -0.79600
C1423       C  0.88665409  0.11578693  0.11088380     0.80400
N1424       N  0.87650888  0.12718352  0.08377489    -0.78000
C1425       C  0.85475293  0.11240881  0.06854251     0.82800
N1426       N  0.84261829  0.08676603  0.08114826    -0.77900
C1427       C  0.85285707  0.07515390  0.10816205     0.82900
N1428       N  0.87437808  0.09020003  0.12330553    -0.79600
O1429       O  0.75891180  0.25783429  0.06866351    -0.72800
O1430       O  0.69624612  0.18865583  0.07015574    -0.73800
O1431       O  0.76139611  0.19142106  0.06653463    -0.62400
O1432       O  0.69108064  0.25545989  0.07138844    -0.70800
O1433       O  0.69082588  0.25496012  0.02117922    -0.70400
O1434       O  0.75791488  0.19719591  0.01658020    -0.61600
O1435       O  0.69671782  0.19277058  0.01988952    -0.74100
O1436       O  0.75356686  0.25933591  0.01874555    -0.72900
Cu1437     Cu  0.72692471  0.22352496  0.07144007     1.04600
Cu1438     Cu  0.72464371  0.22636089  0.01789333     1.04300
C1439       C  0.76688308  0.26840275  0.04237376     0.93400
C1440       C  0.68823660  0.17900540  0.04421005     0.92500
C1441       C  0.76969135  0.18385282  0.03967641     0.84700
C1442       C  0.67929340  0.26425166  0.04589106     0.87700
C1443       C  0.62348574  0.12323108  0.04883510     0.03300
C1444       C  0.64615423  0.14247259  0.05972254    -0.12900
C1445       C  0.66924883  0.15199453  0.03995870     0.00800
C1446       C  0.67083087  0.13920014  0.01130570    -0.11400
C1447       C  0.64430032  0.12924145  0.49765523     0.03300
C1448       C  0.62085595  0.11886181  0.01708771    -0.10800
H1449       H  0.64577818  0.14968008  0.08309100     0.08800
H1450       H  0.69054925  0.14373241  0.49704787     0.06400
H1451       H  0.60110343  0.10810567  0.00795359     0.06200
C1452       C  0.62452506  0.33207040  0.05385226     0.03300
C1453       C  0.61911047  0.33753710  0.02234409    -0.12900
C1454       C  0.62859841  0.31552682  0.50146611     0.00800
C1455       C  0.63950050  0.28756691  0.01351441    -0.11400
C1456       C  0.65278665  0.28573575  0.04236165     0.03300
C1457       C  0.64379192  0.30754978  0.06338107    -0.10800
H1458       H  0.60819535  0.35848143  0.01442970     0.08800
H1459       H  0.64360277  0.26915063  0.49799206     0.06400
H1460       H  0.65143509  0.30555277  0.08670733     0.06200
C1461       C  0.83753690  0.12884470  0.04474569     0.03300
C1462       C  0.81322503  0.14764351  0.05444492    -0.12900
C1463       C  0.79300358  0.16008234  0.03316272     0.00800
C1464       C  0.79636867  0.15162397  0.00292697    -0.11400
C1465       C  0.82364559  0.13910505  0.49183164     0.03300
C1466       C  0.84402807  0.12601432  0.01321617    -0.10800
H1467       H  0.80999418  0.15216974  0.07836951     0.08800
H1468       H  0.77890869  0.15837130  0.48676010     0.06400
H1469       H  0.86443650  0.11427726  0.00570908     0.06200
C1470       C  0.82488238  0.33248679  0.04897363     0.03300
C1471       C  0.82815252  0.34015496  0.01771709    -0.12900
C1472       C  0.81468050  0.32188827  0.49620593     0.00800
C1473       C  0.80064783  0.29522978  0.00662802    -0.11400
C1474       C  0.79154179  0.29089837  0.03687352     0.03300
C1475       C  0.80494520  0.30906108  0.05866506    -0.10800
H1476       H  0.84090882  0.35990497  0.01044184     0.08800
H1477       H  0.79398517  0.27887627  0.49006938     0.06400
H1478       H  0.80016063  0.30513035  0.08261206     0.06200
O1479       O  0.70307648  0.19928053  0.44194672    -0.72800
O1480       O  0.76028205  0.26551619  0.44036508    -0.73800
O1481       O  0.69910454  0.26154099  0.44361251    -0.62400
O1482       O  0.76588209  0.20332530  0.43896628    -0.70800
O1483       O  0.76574899  0.20322467  0.38873053    -0.70400
O1484       O  0.69575546  0.26734383  0.39363710    -0.61600
O1485       O  0.76065698  0.26989226  0.39010337    -0.74100
O1486       O  0.69785064  0.20078642  0.39200140    -0.72900
Cu1487     Cu  0.73219658  0.23210495  0.44242483     1.04600
Cu1488     Cu  0.72995348  0.23509165  0.38885716     1.04300
C1489       C  0.68981663  0.19021859  0.41831204     0.93400
C1490       C  0.76865674  0.27942016  0.41609958     0.92500
C1491       C  0.68760227  0.27507708  0.42046639     0.84700
C1492       C  0.77756020  0.19436529  0.41417271     0.90900
C1493       C  0.63299294  0.12532359  0.41123327     0.03300
C1494       C  0.65276140  0.14897136  0.40189277    -0.12900
C1495       C  0.66520511  0.16763943  0.42374873     0.00800
C1496       C  0.65541171  0.16352522  0.45385854    -0.11400
C1497       C  0.64144109  0.13672145  0.46428679     0.03300
C1498       C  0.62888604  0.11796490  0.44253212    -0.10800
H1499       H  0.65813484  0.15273712  0.37804110     0.08800
H1500       H  0.66172948  0.18006162  0.47039002     0.06400
H1501       H  0.61627548  0.09805852  0.44964495     0.06200
C1502       C  0.62132795  0.33187171  0.41489705     0.03300
C1503       C  0.61472213  0.33486446  0.44645440    -0.12900
C1504       C  0.63467473  0.32117942  0.46800648     0.00800
C1505       C  0.66170092  0.30808335  0.45699486    -0.11400
C1506       C  0.66485336  0.29937589  0.42683789     0.03300
C1507       C  0.64509851  0.31231148  0.40541963    -0.10800
H1508       H  0.59462422  0.34720110  0.45384118     0.08800
H1509       H  0.67900906  0.30100088  0.47320082     0.06400
H1510       H  0.64837107  0.30767346  0.38152243     0.06200
C1511       C  0.83364097  0.12757262  0.40625922     0.03300
C1512       C  0.81375196  0.15156270  0.39662629    -0.12900
C1513       C  0.80447340  0.17341675  0.41752867     0.00800
C1514       C  0.81810813  0.17224073  0.44619511    -0.11400
C1515       C  0.82955274  0.14462168  0.45840572     0.03300
C1516       C  0.83939231  0.12259230  0.43774295    -0.10800
H1517       H  0.80598343  0.15320986  0.37332696     0.08800
H1518       H  0.81377984  0.19073440  0.46157495     0.06400
H1519       H  0.85091438  0.10202493  0.44580326     0.06200
C1520       C  0.83347475  0.33478059  0.41238739     0.03300
C1521       C  0.83558612  0.33943726  0.44399985    -0.12900
C1522       C  0.81181960  0.32941349  0.46300441     0.00800
C1523       C  0.78541876  0.31946297  0.44906626    -0.11400
C1524       C  0.78742189  0.30650160  0.42048882     0.03300
C1525       C  0.81090383  0.31572619  0.40110801    -0.10800
H1526       H  0.85527424  0.35011057  0.45338242     0.08800
H1527       H  0.76553915  0.31495610  0.46310369     0.06400
H1528       H  0.81168632  0.30839758  0.37778314     0.06200
O1529       O  0.76101239  0.07056527  0.19272409    -0.72800
O1530       O  0.69275000  0.06635492  0.25792862    -0.73800
O1531       O  0.75913837  0.06861517  0.26088637    -0.62400
O1532       O  0.69589769  0.06804045  0.19111409    -0.70800
O1533       O  0.70193714  0.01804680  0.19284227    -0.70400
O1534       O  0.75856500  0.01849259  0.25966536    -0.61600
O1535       O  0.69653535  0.01635092  0.25507973    -0.74100
O1536       O  0.76312620  0.02033399  0.19662133    -0.72900
Cu1537     Cu  0.72722240  0.07065775  0.22581426     1.04600
Cu1538     Cu  0.73021233  0.01711407  0.22616961     1.04300
C1539       C  0.77109055  0.04494600  0.18323441     0.93400
C1540       C  0.68375335  0.03975611  0.26615515     0.92500
C1541       C  0.76801560  0.04251746  0.27164723     0.84700
C1542       C  0.68998501  0.04182209  0.18069949     0.90900
C1543       C  0.62195054  0.04667417  0.12785467     0.03300
C1544       C  0.61726741  0.01504120  0.12543674    -0.12900
C1545       C  0.63988307  0.49466808  0.13628814     0.00800
C1546       C  0.66745759  0.00679313  0.14526051    -0.11400
C1547       C  0.66854806  0.03650360  0.15557918     0.03300
C1548       C  0.64622317  0.05716437  0.14540993    -0.10800
H1549       H  0.59667942  0.00669552  0.11555066     0.08800
H1550       H  0.68623878  0.49120184  0.15015221     0.06400
H1551       H  0.64777037  0.08100791  0.15065777     0.06200
C1552       C  0.83492836  0.05189255  0.12428454     0.03300
C1553       C  0.81279518  0.06169716  0.14558143    -0.12900
C1554       C  0.79091776  0.04124829  0.15601892     0.00800
C1555       C  0.78996579  0.01303945  0.14229700    -0.11400
C1556       C  0.81640136  0.50012169  0.12977087     0.03300
C1557       C  0.83850473  0.02036396  0.11845250    -0.10800
H1558       H  0.81249428  0.08481968  0.15346826     0.08800
H1559       H  0.77079904  0.49848649  0.14724820     0.06400
H1560       H  0.85807002  0.01199074  0.10597452     0.06200
C1561       C  0.63131354  0.04633742  0.33538143     0.03300
C1562       C  0.64867442  0.05565205  0.30971622    -0.12900
C1563       C  0.65980141  0.03397028  0.28959733     0.00800
C1564       C  0.65123927  0.00377727  0.29449528    -0.11400
C1565       C  0.63992818  0.49336808  0.32272247     0.03300
C1566       C  0.62849601  0.01501507  0.34299336    -0.10800
H1567       H  0.65336192  0.07950345  0.30557248     0.08800
H1568       H  0.65755490  0.48706987  0.27779529     0.06400
H1569       H  0.61791913  0.00780151  0.36421760     0.06200
C1570       C  0.83333676  0.05057071  0.32815017     0.03300
C1571       C  0.84136430  0.01936449  0.33176247    -0.12900
C1572       C  0.82219813  0.49746598  0.32000091     0.00800
C1573       C  0.79447722  0.00755950  0.30750914    -0.11400
C1574       C  0.78997623  0.03764965  0.29721418     0.03300
C1575       C  0.80888038  0.05972367  0.30899465    -0.10800
H1576       H  0.86200941  0.01243099  0.34344131     0.08800
H1577       H  0.77803537  0.49065950  0.30165169     0.06400
H1578       H  0.80482690  0.08355179  0.30341463     0.06200
O1579       O  0.69792562  0.39109677  0.20455537    -0.72800
O1580       O  0.77160784  0.39173169  0.26308289    -0.73800
O1581       O  0.70520880  0.39011145  0.27109807    -0.62400
O1582       O  0.76523823  0.39273824  0.19801308    -0.70800
O1583       O  0.75895976  0.44271390  0.19789890    -0.70400
O1584       O  0.70704292  0.44029670  0.26978375    -0.61600
O1585       O  0.76869363  0.44188200  0.25879856    -0.74100
O1586       O  0.69674219  0.44107235  0.20799384    -0.72900
Cu1587     Cu  0.73490167  0.38917369  0.23414883     1.04600
Cu1588     Cu  0.73266478  0.44270863  0.23357082     1.04300
C1589       C  0.68562935  0.41701677  0.19750071     0.93400
C1590       C  0.78215196  0.41794938  0.26892459     0.92500
C1591       C  0.69744235  0.41582936  0.28221468     0.84700
C1592       C  0.77246533  0.41924406  0.18776468     0.90900
C1593       C  0.62872986  0.40893823  0.13241113     0.03300
C1594       C  0.64835246  0.39971845  0.15652878    -0.12900
C1595       C  0.65959331  0.42164226  0.17599613     0.00800
C1596       C  0.64861890  0.45153656  0.17207227    -0.11400
C1597       C  0.63553765  0.46183695  0.14460514     0.03300
C1598       C  0.62408017  0.44015697  0.12520036    -0.10800
H1599       H  0.65453814  0.37597479  0.16002153     0.08800
H1600       H  0.65459462  0.46835579  0.18848158     0.06400
H1601       H  0.61201342  0.44729080  0.10480245     0.06200
C1602       C  0.82913567  0.41358180  0.12147968     0.03300
C1603       C  0.80904975  0.40386376  0.14492042    -0.12900
C1604       C  0.79690836  0.42507089  0.16488608     0.00800
C1605       C  0.80726408  0.45481476  0.16235409    -0.11400
C1606       C  0.82050443  0.46635572  0.13541923     0.03300
C1607       C  0.83322081  0.44515149  0.11527009    -0.10800
H1608       H  0.80341728  0.38007721  0.14773965     0.08800
H1609       H  0.80143644  0.47043814  0.18020803     0.06400
H1610       H  0.84570677  0.45281486  0.09528776     0.06200
C1611       C  0.62899381  0.40817277  0.33524431     0.03300
C1612       C  0.62364674  0.43959711  0.33969832    -0.12900
C1613       C  0.64588577  0.46043714  0.33029007     0.00800
C1614       C  0.67394578  0.44879416  0.32028745    -0.11400
C1615       C  0.67612425  0.41964213  0.30839548     0.03300
C1616       C  0.65408227  0.39856213  0.31737059    -0.10800
H1617       H  0.60249854  0.44753649  0.34966030     0.08800
H1618       H  0.69202915  0.46471139  0.31553267     0.06400
H1619       H  0.65618224  0.37515351  0.31049607     0.06200
C1620       C  0.83868243  0.41252225  0.33376588     0.03300
C1621       C  0.81992667  0.40216929  0.31035740    -0.12900
C1622       C  0.80906260  0.42288027  0.28826915     0.00800
C1623       C  0.82016184  0.45242043  0.28835139    -0.11400
C1624       C  0.83038822  0.46463882  0.31547714     0.03300
C1625       C  0.84172062  0.44418765  0.33798274    -0.10800
H1626       H  0.81380228  0.37845615  0.30961473     0.08800
H1627       H  0.81453812  0.46788696  0.26954437     0.06400
H1628       H  0.85214794  0.45250040  0.35829110     0.06200
C1629       C  0.84531438  0.38997911  0.10446326     0.80400
N1630       N  0.83053815  0.37549868  0.08227123    -0.78000
C1631       C  0.84197078  0.34907381  0.07139954     0.82800
N1632       N  0.86777038  0.33649057  0.08343028    -0.77900
C1633       C  0.88294446  0.35095290  0.10542293     0.82900
N1634       N  0.87115608  0.37731020  0.11635472    -0.79600
O1635       O  0.52019319  0.19136817  0.25730622    -0.72800
O1636       O  0.51665128  0.26254862  0.20329820    -0.73800
O1637       O  0.51759098  0.20165705  0.19569193    -0.62400
O1638       O  0.51928316  0.25304149  0.26573758    -0.70800
O1639       O  0.56920765  0.25686162  0.26448099    -0.70400
O1640       O  0.56764499  0.19826372  0.19200195    -0.61600
O1641       O  0.56652377  0.26320551  0.19702282    -0.74100
O1642       O  0.57037687  0.19021018  0.25838488    -0.72900
Cu1643     Cu  0.51724103  0.22719704  0.23072876     1.04600
Cu1644     Cu  0.57071530  0.22722417  0.22807129     1.04300
C1645       C  0.54479857  0.17891004  0.26658062     0.93400
C1646       C  0.53990833  0.27294803  0.18952246     0.92500
C1647       C  0.54122896  0.19190058  0.18210123     0.84700
C1648       C  0.54341406  0.26376192  0.27659084     0.90900
C1649       C  0.54566187  0.12747385  0.12647321     0.03300
C1650       C  0.55631790  0.15086679  0.14480162    -0.12900
C1651       C  0.53567910  0.17241800  0.15579761     0.00800
C1652       C  0.50580067  0.17173393  0.14545953    -0.11400
C1653       C  0.99384047  0.14474355  0.13489657     0.03300
C1654       C  0.51415138  0.12288333  0.12349057    -0.10800
H1655       H  0.58015169  0.15199310  0.15050142     0.08800
H1656       H  0.99016582  0.19003064  0.15131006     0.06400
H1657       H  0.50581791  0.10271271  0.11294357     0.06200
C1658       C  0.54556360  0.33808735  0.13041054     0.03300
C1659       C  0.51394818  0.34391224  0.12552082    -0.12900
C1660       C  0.99251803  0.32401405  0.13903008     0.00800
C1661       C  0.50407922  0.29761638  0.15378844    -0.11400
C1662       C  0.53381399  0.29551592  0.16443849     0.03300
C1663       C  0.55503970  0.31528865  0.15168079    -0.10800
H1664       H  0.50643980  0.36334290  0.11177748     0.08800
H1665       H  0.98857658  0.27965131  0.16016754     0.06400
H1666       H  0.57879539  0.31263313  0.15761769     0.06200
C1667       C  0.55331876  0.12424390  0.33461825     0.03300
C1668       C  0.52183973  0.11981026  0.34028735    -0.12900
C1669       C  0.00068961  0.12977398  0.31807958     0.00800
C1670       C  0.51222543  0.13999290  0.28991456    -0.11400
C1671       C  0.54126615  0.15228403  0.28781967     0.03300
C1672       C  0.56257332  0.14293567  0.30969428    -0.10800
H1673       H  0.51416830  0.10922434  0.36141041     0.08800
H1674       H  0.99630129  0.14471941  0.27162003     0.06400
H1675       H  0.58597999  0.14990872  0.30743086     0.06200
C1676       C  0.55105059  0.32997310  0.33101490     0.03300
C1677       C  0.51978709  0.33645929  0.33532429    -0.12900
C1678       C  0.99843811  0.31611613  0.32474107     0.00800
C1679       C  0.50915304  0.28852223  0.31315821    -0.11400
C1680       C  0.53890008  0.28533391  0.30206410     0.03300
C1681       C  0.56052591  0.30571020  0.31233056    -0.10800
H1682       H  0.51237687  0.35692899  0.34655018     0.08800
H1683       H  0.99261813  0.27144611  0.30802182     0.06400
H1684       H  0.58423101  0.30272151  0.30623919     0.06200
O1685       O  0.94006362  0.19952238  0.20288854    -0.72800
O1686       O  0.94164799  0.26675530  0.25756494    -0.73800
O1687       O  0.94387735  0.20458003  0.26476540    -0.62400
O1688       O  0.93815232  0.26225923  0.19645411    -0.70800
O1689       O  0.88804545  0.26597606  0.19903757    -0.70400
O1690       O  0.89399756  0.20118654  0.26911778    -0.61600
O1691       O  0.89184531  0.26789165  0.26424857    -0.74100
O1692       O  0.88997276  0.19780386  0.20276915    -0.72900
Cu1693     Cu  0.94209281  0.23318352  0.23021914     1.04600
Cu1694     Cu  0.88866888  0.23303646  0.23380302     1.04300
C1695       C  0.91589531  0.18723175  0.19399944     0.93400
C1696       C  0.91813570  0.27859790  0.26963944     0.92500
C1697       C  0.92078307  0.19333368  0.27808213     0.84700
C1698       C  0.91349856  0.27548639  0.18838221     0.90900
C1699       C  0.90875671  0.13226531  0.12836257     0.03300
C1700       C  0.93999645  0.12873872  0.12168881    -0.12900
C1701       C  0.96118449  0.13951885  0.14211211     0.00800
C1702       C  0.95044441  0.15073835  0.16976195    -0.11400
C1703       C  0.92052512  0.16149965  0.17284415     0.03300
C1704       C  0.89893801  0.15068956  0.15267173    -0.10800
H1705       H  0.94751133  0.11785920  0.10108472     0.08800
H1706       H  0.96692470  0.15596573  0.18697872     0.06400
H1707       H  0.87512522  0.15649398  0.15557436     0.06200
C1708       C  0.90650191  0.33444924  0.12321810     0.03300
C1709       C  0.89673215  0.31298870  0.14564249    -0.12900
C1710       C  0.91715931  0.30266240  0.16788463     0.00800
C1711       C  0.94538179  0.31658940  0.16879345    -0.11400
C1712       C  0.95848478  0.32910428  0.14221890     0.03300
C1713       C  0.93814551  0.34040695  0.11973397    -0.10800
H1714       H  0.87357812  0.30504090  0.14600375     0.08800
H1715       H  0.95971230  0.31201189  0.18839923     0.06400
H1716       H  0.94648406  0.35315249  0.10009615     0.06200
C1717       C  0.91452059  0.12453014  0.33225831     0.03300
C1718       C  0.90537100  0.15006512  0.31426152    -0.12900
C1719       C  0.92701265  0.17008558  0.30259888     0.00800
C1720       C  0.95726611  0.16528405  0.31122623    -0.11400
C1721       C  0.96765936  0.13722699  0.32362893     0.03300
C1722       C  0.94583299  0.11700413  0.33554488    -0.10800
H1723       H  0.88154027  0.15414451  0.30937282     0.08800
H1724       H  0.97391630  0.18201905  0.30434292     0.06400
H1725       H  0.95288415  0.09586464  0.34673371     0.06200
C1726       C  0.91356144  0.33219759  0.33619750     0.03300
C1727       C  0.90308053  0.31434539  0.31228141    -0.12900
C1728       C  0.92382941  0.30362318  0.29074744     0.00800
C1729       C  0.95373498  0.31354288  0.29222175    -0.11400
C1730       C  0.96559048  0.32348455  0.31956922     0.03300
C1731       C  0.94510885  0.33476564  0.34133570    -0.10800
H1732       H  0.87919300  0.30927293  0.31040259     0.08800
H1733       H  0.96950221  0.30818396  0.27398964     0.06400
H1734       H  0.95333202  0.34516349  0.36167023     0.06200
C1735       C  0.56780156  0.10902365  0.11014247     0.80400
N1736       N  0.58078573  0.12112990  0.08455141    -0.78000
C1737       C  0.60475094  0.10689232  0.07132076     0.82800
N1738       N  0.61660959  0.08135196  0.08477049    -0.77900
C1739       C  0.60401723  0.06924797  0.11049743     0.82900
N1740       N  0.57996498  0.08356060  0.12363779    -0.79600
C1741       C  0.85488263  0.38964106  0.85255722     0.80400
N1742       N  0.84105755  0.37695289  0.87724688    -0.78000
C1743       C  0.85257651  0.35106002  0.89053245     0.82800
N1744       N  0.87714889  0.33689484  0.87811268    -0.77900
C1745       C  0.89120312  0.34965208  0.85350775     0.82900
N1746       N  0.87955311  0.37552570  0.84044600    -0.79600
C1747       C  0.61201513  0.38615381  0.61586761     0.80400
N1748       N  0.62447983  0.37275160  0.59110193    -0.78000
C1749       C  0.60934517  0.35039506  0.57717033     0.82800
N1750       N  0.58235915  0.34082502  0.58885329    -0.77900
C1751       C  0.56971990  0.35416633  0.61354729     0.82900
N1752       N  0.58501306  0.37642558  0.62732237    -0.79600
C1753       C  0.89045635  0.10741330  0.84792174     0.80400
N1754       N  0.87667932  0.12031615  0.87221528    -0.78000
C1755       C  0.84984930  0.10986704  0.88315682     0.82800
N1756       N  0.83604755  0.08695202  0.86888258    -0.77900
C1757       C  0.84974618  0.07365492  0.84464949     0.82900
N1758       N  0.87668309  0.08427949  0.83381980    -0.79600
C1759       C  0.61657851  0.10884457  0.88813179     0.80400
N1760       N  0.62906180  0.08329391  0.87616438    -0.78000
C1761       C  0.61531216  0.06984638  0.85261177     0.82800
N1762       N  0.58972570  0.08261565  0.84053607    -0.77900
C1763       C  0.57704984  0.10805482  0.85232676     0.82900
N1764       N  0.59096085  0.12157877  0.87574018    -0.79600
C1765       C  0.61001938  0.38508451  0.85034558     0.80400
N1766       N  0.61900204  0.37351350  0.87781341    -0.78000
C1767       C  0.60516567  0.34902169  0.89074451     0.82800
N1768       N  0.58285555  0.33536281  0.87533714    -0.77900
C1769       C  0.57360570  0.34675314  0.84785218     0.82900
N1770       N  0.58763174  0.37127234  0.83499772    -0.79600
C1771       C  0.88665406  0.11578691  0.61088380     0.80400
N1772       N  0.87650891  0.12718348  0.58377486    -0.78000
C1773       C  0.85475294  0.11240879  0.56854251     0.82800
N1774       N  0.84261828  0.08676602  0.58114828    -0.77900
C1775       C  0.85285706  0.07515389  0.60816208     0.82900
N1776       N  0.87437801  0.09020008  0.62330558    -0.79600
O1777       O  0.75891181  0.25783428  0.56866350    -0.72800
O1778       O  0.69624611  0.18865579  0.57015584    -0.73800
O1779       O  0.76139610  0.19142101  0.56653473    -0.62400
O1780       O  0.69108062  0.25545984  0.57138842    -0.70800
O1781       O  0.69082590  0.25496021  0.52117920    -0.70400
O1782       O  0.75791486  0.19719586  0.51658030    -0.61600
O1783       O  0.69671769  0.19277063  0.51988962    -0.74100
O1784       O  0.75356680  0.25933599  0.51874555    -0.72900
Cu1785     Cu  0.72692471  0.22352492  0.57144013     1.04600
Cu1786     Cu  0.72464368  0.22636090  0.51789339     1.04300
C1787       C  0.76688303  0.26840282  0.54237375     0.93400
C1788       C  0.68823654  0.17900541  0.54421012     0.92500
C1789       C  0.76969134  0.18385277  0.53967651     0.84700
C1790       C  0.67929340  0.26425166  0.54589107     0.87700
C1791       C  0.62348575  0.12323104  0.54883509     0.03300
C1792       C  0.64615422  0.14247255  0.55972244    -0.12900
C1793       C  0.66924884  0.15199449  0.53995877     0.00800
C1794       C  0.67083106  0.13920009  0.51130570    -0.11400
C1795       C  0.64430020  0.12924155  0.99765520     0.03300
C1796       C  0.62085608  0.11886172  0.51708770    -0.10800
H1797       H  0.64577811  0.14968025  0.58309151     0.08800
H1798       H  0.69054951  0.14373254  0.99704749     0.06400
H1799       H  0.60110338  0.10810548  0.50795347     0.06200
C1800       C  0.62452506  0.33207040  0.55385221     0.03300
C1801       C  0.61911050  0.33753702  0.52234408    -0.12900
C1802       C  0.62859842  0.31552686  0.00146612     0.00800
C1803       C  0.63950048  0.28756688  0.51351446    -0.11400
C1804       C  0.65278661  0.28573571  0.54236165     0.03300
C1805       C  0.64379193  0.30754973  0.56338122    -0.10800
H1806       H  0.60819525  0.35848164  0.51442950     0.08800
H1807       H  0.64360277  0.26915080  0.99799211     0.06400
H1808       H  0.65143478  0.30555279  0.58670664     0.06200
C1809       C  0.83753693  0.12884471  0.54474568     0.03300
C1810       C  0.81322505  0.14764347  0.55444496    -0.12900
C1811       C  0.79300356  0.16008230  0.53316277     0.00800
C1812       C  0.79636870  0.15162390  0.50292705    -0.11400
C1813       C  0.82364565  0.13910513  0.99183164     0.03300
C1814       C  0.84402809  0.12601427  0.51321615    -0.10800
H1815       H  0.80999419  0.15216966  0.57836948     0.08800
H1816       H  0.77890895  0.15837121  0.98676028     0.06400
H1817       H  0.86443634  0.11427731  0.50570907     0.06200
C1818       C  0.82488238  0.33248677  0.54897359     0.03300
C1819       C  0.82815247  0.34015491  0.51771706    -0.12900
C1820       C  0.81468063  0.32188825  0.99620594     0.00800
C1821       C  0.80064765  0.29522976  0.50662795    -0.11400
C1822       C  0.79154172  0.29089843  0.53687353     0.03300
C1823       C  0.80494517  0.30906105  0.55866517    -0.10800
H1824       H  0.84090884  0.35990491  0.51044177     0.08800
H1825       H  0.79398515  0.27887585  0.99006900     0.06400
H1826       H  0.80016080  0.30513043  0.58261150     0.06200
O1827       O  0.70307646  0.19928048  0.94194660    -0.72800
O1828       O  0.76028203  0.26551615  0.94036504    -0.73800
O1829       O  0.69910452  0.26154096  0.94361242    -0.62400
O1830       O  0.76588201  0.20332534  0.93896618    -0.70800
O1831       O  0.76574890  0.20322471  0.88873044    -0.70400
O1832       O  0.69575543  0.26734381  0.89363702    -0.61600
O1833       O  0.76065698  0.26989224  0.89010333    -0.74100
O1834       O  0.69785062  0.20078637  0.89200128    -0.72900
Cu1835     Cu  0.73219654  0.23210493  0.94242471     1.04600
Cu1836     Cu  0.72995345  0.23509164  0.88885705     1.04300
C1837       C  0.68981661  0.19021854  0.91831190     0.93400
C1838       C  0.76865675  0.27942013  0.91609954     0.92500
C1839       C  0.68760224  0.27507706  0.92046632     0.84700
C1840       C  0.77756011  0.19436533  0.91417264     0.90900
C1841       C  0.63299287  0.12532355  0.91123325     0.03300
C1842       C  0.65276137  0.14897129  0.90189258    -0.12900
C1843       C  0.66520507  0.16763938  0.92374863     0.00800
C1844       C  0.65541159  0.16352517  0.95385835    -0.11400
C1845       C  0.64144104  0.13672145  0.96428674     0.03300
C1846       C  0.62888601  0.11796482  0.94253210    -0.10800
H1847       H  0.65813468  0.15273693  0.87804146     0.08800
H1848       H  0.66172947  0.18006203  0.97039021     0.06400
H1849       H  0.61627558  0.09805864  0.94964492     0.06200
C1850       C  0.62132795  0.33187177  0.91489705     0.03300
C1851       C  0.61472210  0.33486458  0.94645441    -0.12900
C1852       C  0.63467473  0.32117946  0.96800647     0.00800
C1853       C  0.66170091  0.30808341  0.95699481    -0.11400
C1854       C  0.66485335  0.29937592  0.92683784     0.03300
C1855       C  0.64509851  0.31231156  0.90541954    -0.10800
H1856       H  0.59462456  0.34720108  0.95384109     0.08800
H1857       H  0.67900911  0.30100092  0.97320079     0.06400
H1858       H  0.64837102  0.30767363  0.88152265     0.06200
C1859       C  0.83364094  0.12757255  0.90625923     0.03300
C1860       C  0.81375198  0.15156262  0.89662640    -0.12900
C1861       C  0.80447333  0.17341674  0.91752860     0.00800
C1862       C  0.81810810  0.17224069  0.94619502    -0.11400
C1863       C  0.82955272  0.14462170  0.95840571     0.03300
C1864       C  0.83939231  0.12259223  0.93774301    -0.10800
H1865       H  0.80598322  0.15320981  0.87332633     0.08800
H1866       H  0.81377975  0.19073464  0.96157501     0.06400
H1867       H  0.85091429  0.10202505  0.94580331     0.06200
C1868       C  0.83347474  0.33478064  0.91238738     0.03300
C1869       C  0.83558614  0.33943730  0.94399983    -0.12900
C1870       C  0.81181965  0.32941355  0.96300444     0.00800
C1871       C  0.78541885  0.31946293  0.94906629    -0.11400
C1872       C  0.78742193  0.30650155  0.92048886     0.03300
C1873       C  0.81090386  0.31572617  0.90110801    -0.10800
H1874       H  0.85527442  0.35011063  0.95338244     0.08800
H1875       H  0.76553907  0.31495598  0.96310388     0.06400
H1876       H  0.81168635  0.30839757  0.87778325     0.06200
O1877       O  0.76101220  0.07056523  0.69272407    -0.72800
O1878       O  0.69274989  0.06635487  0.75792853    -0.73800
O1879       O  0.75913820  0.06861513  0.76088629    -0.62400
O1880       O  0.69589764  0.06804045  0.69111400    -0.70800
O1881       O  0.70193707  0.01804680  0.69284236    -0.70400
O1882       O  0.75856502  0.01849255  0.75966528    -0.61600
O1883       O  0.69653538  0.01635085  0.75507983    -0.74100
O1884       O  0.76312603  0.02033395  0.69662134    -0.72900
Cu1885     Cu  0.72722224  0.07065771  0.72581418     1.04600
Cu1886     Cu  0.73021228  0.01711403  0.72616965     1.04300
C1887       C  0.77109037  0.04494595  0.68323441     0.93400
C1888       C  0.68375335  0.03975606  0.76615517     0.92500
C1889       C  0.76801554  0.04251743  0.77164714     0.84700
C1890       C  0.68998495  0.04182206  0.68069952     0.90900
C1891       C  0.62195050  0.04667414  0.62785471     0.03300
C1892       C  0.61726742  0.01504116  0.62543665    -0.12900
C1893       C  0.63988307  0.49466808  0.63628806     0.00800
C1894       C  0.66745762  0.00679304  0.64526059    -0.11400
C1895       C  0.66854795  0.03650354  0.65557929     0.03300
C1896       C  0.64622310  0.05716432  0.64541002    -0.10800
H1897       H  0.59667947  0.00669551  0.61555050     0.08800
H1898       H  0.68623827  0.49120225  0.65015214     0.06400
H1899       H  0.64777031  0.08100782  0.65065784     0.06200
C1900       C  0.83492835  0.05189252  0.62428459     0.03300
C1901       C  0.81279516  0.06169714  0.64558150    -0.12900
C1902       C  0.79091772  0.04124824  0.65601899     0.00800
C1903       C  0.78996575  0.01303935  0.64229710    -0.11400
C1904       C  0.81640135  0.50012167  0.62977094     0.03300
C1905       C  0.83850473  0.02036390  0.61845244    -0.10800
H1906       H  0.81249422  0.08481950  0.65346821     0.08800
H1907       H  0.77079889  0.49848639  0.64724815     0.06400
H1908       H  0.85806965  0.01199084  0.60597465     0.06200
C1909       C  0.63131350  0.04633747  0.83538136     0.03300
C1910       C  0.64867442  0.05565209  0.80971614    -0.12900
C1911       C  0.65980143  0.03397024  0.78959734     0.00800
C1912       C  0.65123926  0.00377729  0.79449535    -0.11400
C1913       C  0.63992811  0.49336806  0.82272249     0.03300
C1914       C  0.62849598  0.01501515  0.84299329    -0.10800
H1915       H  0.65336191  0.07950332  0.80557238     0.08800
H1916       H  0.65755482  0.48706954  0.77779491     0.06400
H1917       H  0.61791894  0.00780154  0.86421781     0.06200
C1918       C  0.83333674  0.05057069  0.82815008     0.03300
C1919       C  0.84136435  0.01936443  0.83176238    -0.12900
C1920       C  0.82219798  0.49746595  0.82000093     0.00800
C1921       C  0.79447706  0.00755939  0.80750906    -0.11400
C1922       C  0.78997614  0.03764967  0.79721415     0.03300
C1923       C  0.80888032  0.05972362  0.80899465    -0.10800
H1924       H  0.86200901  0.01243108  0.84344097     0.08800
H1925       H  0.77803564  0.49065988  0.80165173     0.06400
H1926       H  0.80482684  0.08355192  0.80341462     0.06200
O1927       O  0.69792563  0.39109682  0.70455536    -0.72800
O1928       O  0.77160778  0.39173166  0.76308293    -0.73800
O1929       O  0.70520878  0.39011143  0.77109807    -0.62400
O1930       O  0.76523823  0.39273833  0.69801310    -0.70800
O1931       O  0.75895969  0.44271397  0.69789884    -0.70400
O1932       O  0.70704294  0.44029665  0.76978380    -0.61600
O1933       O  0.76869363  0.44188195  0.75879853    -0.74100
O1934       O  0.69674215  0.44107237  0.70799389    -0.72900
Cu1935     Cu  0.73490165  0.38917380  0.73414881     1.04600
Cu1936     Cu  0.73266477  0.44270860  0.73357084     1.04300
C1937       C  0.68562934  0.41701680  0.69750070     0.93400
C1938       C  0.78215190  0.41794934  0.76892464     0.92500
C1939       C  0.69744230  0.41582933  0.78221467     0.84700
C1940       C  0.77246530  0.41924415  0.68776466     0.90900
C1941       C  0.62872981  0.40893823  0.63241106     0.03300
C1942       C  0.64835241  0.39971842  0.65652875    -0.12900
C1943       C  0.65959330  0.42164226  0.67599607     0.00800
C1944       C  0.64861889  0.45153659  0.67207228    -0.11400
C1945       C  0.63553765  0.46183692  0.64460506     0.03300
C1946       C  0.62408020  0.44015696  0.62520028    -0.10800
H1947       H  0.65453800  0.37597490  0.66002151     0.08800
H1948       H  0.65459445  0.46835547  0.68848126     0.06400
H1949       H  0.61201344  0.44729082  0.60480229     0.06200
C1950       C  0.82913565  0.41358181  0.62147969     0.03300
C1951       C  0.80904979  0.40386392  0.64492043    -0.12900
C1952       C  0.79690837  0.42507091  0.66488613     0.00800
C1953       C  0.80726412  0.45481476  0.66235412    -0.11400
C1954       C  0.82050444  0.46635573  0.63541932     0.03300
C1955       C  0.83322083  0.44515155  0.61527012    -0.10800
H1956       H  0.80341711  0.38007657  0.64773977     0.08800
H1957       H  0.80143636  0.47043833  0.68020830     0.06400
H1958       H  0.84570672  0.45281492  0.59528793     0.06200
C1959       C  0.62899375  0.40817275  0.83524431     0.03300
C1960       C  0.62364665  0.43959711  0.83969837    -0.12900
C1961       C  0.64588570  0.46043712  0.83029003     0.00800
C1962       C  0.67394565  0.44879417  0.82028731    -0.11400
C1963       C  0.67612412  0.41964212  0.80839539     0.03300
C1964       C  0.65408222  0.39856210  0.81737063    -0.10800
H1965       H  0.60249881  0.44753636  0.84966023     0.08800
H1966       H  0.69202894  0.46471135  0.81553252     0.06400
H1967       H  0.65618226  0.37515335  0.81049619     0.06200
C1968       C  0.83868243  0.41252221  0.83376584     0.03300
C1969       C  0.81992665  0.40216928  0.81035745    -0.12900
C1970       C  0.80906251  0.42288023  0.78826921     0.00800
C1971       C  0.82016180  0.45242038  0.78835142    -0.11400
C1972       C  0.83038815  0.46463879  0.81547712     0.03300
C1973       C  0.84172065  0.44418768  0.83798288    -0.10800
H1974       H  0.81380220  0.37845593  0.80961481     0.08800
H1975       H  0.81453804  0.46788696  0.76954432     0.06400
H1976       H  0.85214748  0.45250006  0.85829045     0.06200
C1977       C  0.84531436  0.38997909  0.60446326     0.80400
N1978       N  0.83053810  0.37549861  0.58227125    -0.78000
C1979       C  0.84197079  0.34907379  0.57139949     0.82800
N1980       N  0.86777039  0.33649054  0.58343020    -0.77900
C1981       C  0.88294446  0.35095286  0.60542289     0.82900
N1982       N  0.87115608  0.37731017  0.61635467    -0.79600
O1983       O  0.52019319  0.19136814  0.75730610    -0.72800
O1984       O  0.51665127  0.26254861  0.70329814    -0.73800
O1985       O  0.51759095  0.20165711  0.69569188    -0.62400
O1986       O  0.51928315  0.25304155  0.76573748    -0.70800
O1987       O  0.56920764  0.25686158  0.76448099    -0.70400
O1988       O  0.56764496  0.19826364  0.69200198    -0.61600
O1989       O  0.56652377  0.26320545  0.69702274    -0.74100
O1990       O  0.57037686  0.19021015  0.75838488    -0.72900
Cu1991     Cu  0.51724103  0.22719710  0.73072866     1.04600
Cu1992     Cu  0.57071529  0.22722413  0.72807124     1.04300
C1993       C  0.54479856  0.17890999  0.76658056     0.93400
C1994       C  0.53990832  0.27294800  0.68952244     0.92500
C1995       C  0.54122893  0.19190053  0.68210126     0.84700
C1996       C  0.54341405  0.26376190  0.77659082     0.90900
C1997       C  0.54566185  0.12747390  0.62647313     0.03300
C1998       C  0.55631790  0.15086676  0.64480165    -0.12900
C1999       C  0.53567904  0.17241792  0.65579769     0.00800
C2000       C  0.50580063  0.17173384  0.64545960    -0.11400
C2001       C  0.99384046  0.14474350  0.63489660     0.03300
C2002       C  0.51415135  0.12288329  0.62349048    -0.10800
H2003       H  0.58015142  0.15199307  0.65050143     0.08800
H2004       H  0.99016572  0.19003077  0.65131003     0.06400
H2005       H  0.50581803  0.10271298  0.61294364     0.06200
C2006       C  0.54556360  0.33808731  0.63041055     0.03300
C2007       C  0.51394821  0.34391210  0.62552096    -0.12900
C2008       C  0.99251800  0.32401398  0.63903002     0.00800
C2009       C  0.50407915  0.29761632  0.65378854    -0.11400
C2010       C  0.53381398  0.29551592  0.66443853     0.03300
C2011       C  0.55503969  0.31528862  0.65168086    -0.10800
H2012       H  0.50643958  0.36334341  0.61177715     0.08800
H2013       H  0.98857647  0.27965114  0.66016750     0.06400
H2014       H  0.57879540  0.31263310  0.65761775     0.06200
C2015       C  0.55331870  0.12424390  0.83461828     0.03300
C2016       C  0.52183967  0.11981018  0.84028748    -0.12900
C2017       C  0.00068957  0.12977395  0.81807958     0.00800
C2018       C  0.51222547  0.13999285  0.78991466    -0.11400
C2019       C  0.54126613  0.15228397  0.78781965     0.03300
C2020       C  0.56257329  0.14293564  0.80969432    -0.10800
H2021       H  0.51416842  0.10922448  0.86141006     0.08800
H2022       H  0.99630126  0.14471940  0.77162005     0.06400
H2023       H  0.58597996  0.14990870  0.80743091     0.06200
C2024       C  0.55105058  0.32997304  0.83101499     0.03300
C2025       C  0.51978708  0.33645923  0.83532439    -0.12900
C2026       C  0.99843810  0.31611608  0.82474117     0.00800
C2027       C  0.50915303  0.28852216  0.81315828    -0.11400
C2028       C  0.53890007  0.28533386  0.80206414     0.03300
C2029       C  0.56052590  0.30571013  0.81233064    -0.10800
H2030       H  0.51237687  0.35692894  0.84655027     0.08800
H2031       H  0.99261812  0.27144606  0.80802192     0.06400
H2032       H  0.58423099  0.30272146  0.80623927     0.06200
O2033       O  0.94006359  0.19952231  0.70288853    -0.72800
O2034       O  0.94164798  0.26675527  0.75756493    -0.73800
O2035       O  0.94387729  0.20458000  0.76476543    -0.62400
O2036       O  0.93815222  0.26225917  0.69645400    -0.70800
O2037       O  0.88804536  0.26597605  0.69903761    -0.70400
O2038       O  0.89399751  0.20118651  0.76911780    -0.61600
O2039       O  0.89184530  0.26789161  0.76424858    -0.74100
O2040       O  0.88997273  0.19780382  0.70276915    -0.72900
Cu2041     Cu  0.94209278  0.23318346  0.73021909     1.04600
Cu2042     Cu  0.88866886  0.23303642  0.73380300     1.04300
C2043       C  0.91589528  0.18723171  0.69399941     0.93400
C2044       C  0.91813570  0.27859786  0.76963945     0.92500
C2045       C  0.92078299  0.19333367  0.77808218     0.84700
C2046       C  0.91349847  0.27548640  0.68838223     0.90900
C2047       C  0.90875668  0.13226526  0.62836255     0.03300
C2048       C  0.93999643  0.12873864  0.62168882    -0.12900
C2049       C  0.96118446  0.13951883  0.64211208     0.00800
C2050       C  0.95044435  0.15073835  0.66976188    -0.11400
C2051       C  0.92052506  0.16149965  0.67284409     0.03300
C2052       C  0.89893799  0.15068953  0.65267166    -0.10800
H2053       H  0.94751134  0.11785905  0.60108469     0.08800
H2054       H  0.96692470  0.15596573  0.68697869     0.06400
H2055       H  0.87512497  0.15649399  0.65557429     0.06200
C2056       C  0.90650190  0.33444918  0.62321805     0.03300
C2057       C  0.89673213  0.31298866  0.64564246    -0.12900
C2058       C  0.91715918  0.30266249  0.66788471     0.00800
C2059       C  0.94538181  0.31658936  0.66879358    -0.11400
C2060       C  0.95848475  0.32910426  0.64221892     0.03300
C2061       C  0.93814551  0.34040692  0.61973402    -0.10800
H2062       H  0.87357802  0.30504082  0.64600361     0.08800
H2063       H  0.95971198  0.31201190  0.68839886     0.06400
H2064       H  0.94648409  0.35315250  0.60009617     0.06200
C2065       C  0.91452056  0.12453011  0.83225830     0.03300
C2066       C  0.90537092  0.15006504  0.81426148    -0.12900
C2067       C  0.92701259  0.17008556  0.80259889     0.00800
C2068       C  0.95726598  0.16528393  0.81122619    -0.11400
C2069       C  0.96765932  0.13722694  0.82362884     0.03300
C2070       C  0.94583297  0.11700405  0.83554482    -0.10800
H2071       H  0.88154031  0.15414438  0.80937276     0.08800
H2072       H  0.97391656  0.18201933  0.80434272     0.06400
H2073       H  0.95288414  0.09586466  0.84673356     0.06200
C2074       C  0.91356143  0.33219753  0.83619752     0.03300
C2075       C  0.90308054  0.31434533  0.81228147    -0.12900
C2076       C  0.92382941  0.30362312  0.79074749     0.00800
C2077       C  0.95373498  0.31354282  0.79222184    -0.11400
C2078       C  0.96559046  0.32348449  0.81956930     0.03300
C2079       C  0.94510888  0.33476564  0.84133588    -0.10800
H2080       H  0.87919295  0.30927290  0.81040262     0.08800
H2081       H  0.96950220  0.30818392  0.77398974     0.06400
H2082       H  0.95333178  0.34516320  0.86166976     0.06200
C2083       C  0.56780155  0.10902366  0.61014244     0.80400
N2084       N  0.58078574  0.12112988  0.58455141    -0.78000
C2085       C  0.60475095  0.10689230  0.57132076     0.82800
N2086       N  0.61660958  0.08135195  0.58477054    -0.77900
C2087       C  0.60401721  0.06924798  0.61049748     0.82900
N2088       N  0.57996495  0.08356061  0.62363783    -0.79600
C2089       C  0.85488256  0.88964098  0.35255722     0.80400
N2090       N  0.84105745  0.87695280  0.37724688    -0.78000
C2091       C  0.85257649  0.85106000  0.39053250     0.82800
N2092       N  0.87714892  0.83689485  0.37811282    -0.77900
C2093       C  0.89120316  0.84965207  0.35350786     0.82900
N2094       N  0.87955308  0.87552565  0.34044607    -0.79600
C2095       C  0.61201513  0.88615390  0.11586771     0.80400
N2096       N  0.62447984  0.87275171  0.09110203    -0.78000
C2097       C  0.60934520  0.85039516  0.07717041     0.82800
N2098       N  0.58235918  0.84082512  0.08885336    -0.77900
C2099       C  0.56971991  0.85416642  0.11354734     0.82900
N2100       N  0.58501307  0.87642565  0.12732247    -0.79600
C2101       C  0.89045638  0.60741338  0.34792180     0.80400
N2102       N  0.87667938  0.62031621  0.37221535    -0.78000
C2103       C  0.84984933  0.60986713  0.38315688     0.82800
N2104       N  0.83604759  0.58695209  0.36888267    -0.77900
C2105       C  0.84974618  0.57365502  0.34464957     0.82900
N2106       N  0.87668307  0.58427960  0.33381983    -0.79600
C2107       C  0.61657862  0.60884456  0.38813184     0.80400
N2108       N  0.62906185  0.58329386  0.37616442    -0.78000
C2109       C  0.61531215  0.56984632  0.35261187     0.82800
N2110       N  0.58972571  0.58261564  0.34053615    -0.77900
C2111       C  0.57704992  0.60805486  0.35232684     0.82900
N2112       N  0.59096099  0.62157879  0.37574021    -0.79600
C2113       C  0.61001954  0.88508453  0.35034555     0.80400
N2114       N  0.61900216  0.87351353  0.37781343    -0.78000
C2115       C  0.60516573  0.84902176  0.39074453     0.82800
N2116       N  0.58285558  0.83536291  0.37533717    -0.77900
C2117       C  0.57360581  0.84675320  0.34785214     0.82900
N2118       N  0.58763190  0.87127236  0.33499769    -0.79600
C2119       C  0.88665412  0.61578690  0.11088387     0.80400
N2120       N  0.87650891  0.62718352  0.08377498    -0.78000
C2121       C  0.85475291  0.61240885  0.06854264     0.82800
N2122       N  0.84261827  0.58676609  0.08114840    -0.77900
C2123       C  0.85285706  0.57515393  0.10816215     0.82900
N2124       N  0.87437807  0.59020005  0.12330565    -0.79600
O2125       O  0.75891195  0.75783432  0.06866355    -0.72800
O2126       O  0.69624610  0.68865586  0.07015594    -0.73800
O2127       O  0.76139610  0.69142109  0.06653472    -0.62400
O2128       O  0.69108064  0.75545992  0.07138854    -0.70800
O2129       O  0.69082606  0.75496035  0.02117929    -0.70400
O2130       O  0.75791480  0.69719579  0.01658025    -0.61600
O2131       O  0.69671766  0.69277072  0.01988971    -0.74100
O2132       O  0.75356701  0.75933588  0.01874556    -0.72900
Cu2133     Cu  0.72692475  0.72352500  0.07144024     1.04600
Cu2134     Cu  0.72464374  0.72636094  0.01789336     1.04300
C2135       C  0.76688322  0.76840274  0.04237377     0.93400
C2136       C  0.68823649  0.67900550  0.04421025     0.92500
C2137       C  0.76969128  0.68385275  0.03967651     0.84700
C2138       C  0.67929348  0.76425176  0.04589116     0.87700
C2139       C  0.62348562  0.62323111  0.04883514     0.03300
C2140       C  0.64615405  0.64247270  0.05972262    -0.12900
C2141       C  0.66924868  0.65199463  0.03995881     0.00800
C2142       C  0.67083079  0.63920017  0.01130587    -0.11400
C2143       C  0.64430023  0.62924151  0.49765534     0.03300
C2144       C  0.62085596  0.61886183  0.01708779    -0.10800
H2145       H  0.64577795  0.64968016  0.08309100     0.08800
H2146       H  0.69054982  0.64373260  0.49704756     0.06400
H2147       H  0.60110309  0.60810549  0.00795349     0.06200
C2148       C  0.62452511  0.83207052  0.05385228     0.03300
C2149       C  0.61911051  0.83753725  0.02234412    -0.12900
C2150       C  0.62859849  0.81552692  0.50146612     0.00800
C2151       C  0.63950060  0.78756718  0.01351456    -0.11400
C2152       C  0.65278674  0.78573585  0.04236168     0.03300
C2153       C  0.64379204  0.80754992  0.06338115    -0.10800
H2154       H  0.60819543  0.85848148  0.01442975     0.08800
H2155       H  0.64360303  0.76915066  0.49799195     0.06400
H2156       H  0.65143516  0.80555292  0.08670709     0.06200
C2157       C  0.83753690  0.62884473  0.04474578     0.03300
C2158       C  0.81322493  0.64764348  0.05444519    -0.12900
C2159       C  0.79300349  0.66008225  0.03316278     0.00800
C2160       C  0.79636870  0.65162381  0.00292713    -0.11400
C2161       C  0.82364561  0.63910506  0.49183166     0.03300
C2162       C  0.84402810  0.62601433  0.01321628    -0.10800
H2163       H  0.80999416  0.65216952  0.07836874     0.08800
H2164       H  0.77890860  0.65837119  0.48676003     0.06400
H2165       H  0.86443649  0.61427739  0.00570919     0.06200
C2166       C  0.82488260  0.83248661  0.04897363     0.03300
C2167       C  0.82815260  0.84015481  0.01771708    -0.12900
C2168       C  0.81468066  0.82188810  0.49620592     0.00800
C2169       C  0.80064790  0.79522964  0.00662800    -0.11400
C2170       C  0.79154189  0.79089833  0.03687353     0.03300
C2171       C  0.80494538  0.80906095  0.05866507    -0.10800
H2172       H  0.84090887  0.85990488  0.01044180     0.08800
H2173       H  0.79398534  0.77887608  0.49006934     0.06400
H2174       H  0.80016084  0.80513020  0.08261211     0.06200
O2175       O  0.70307654  0.69928041  0.44194671    -0.72800
O2176       O  0.76028203  0.76551618  0.44036517    -0.73800
O2177       O  0.69910451  0.76154089  0.44361251    -0.62400
O2178       O  0.76588211  0.70332532  0.43896628    -0.70800
O2179       O  0.76574899  0.70322463  0.38873053    -0.70400
O2180       O  0.69575544  0.76734368  0.39363711    -0.61600
O2181       O  0.76065689  0.76989213  0.39010346    -0.74100
O2182       O  0.69785064  0.70078636  0.39200140    -0.72900
Cu2183     Cu  0.73219658  0.73210492  0.44242484     1.04600
Cu2184     Cu  0.72995346  0.73509153  0.38885718     1.04300
C2185       C  0.68981665  0.69021851  0.41831204     0.93400
C2186       C  0.76865674  0.77942008  0.41609964     0.92500
C2187       C  0.68760225  0.77507697  0.42046638     0.84700
C2188       C  0.77756019  0.69436528  0.41417272     0.90900
C2189       C  0.63299296  0.62532353  0.41123334     0.03300
C2190       C  0.65276141  0.64897125  0.40189282    -0.12900
C2191       C  0.66520509  0.66763938  0.42374873     0.00800
C2192       C  0.65541170  0.66352521  0.45385858    -0.11400
C2193       C  0.64144108  0.63672145  0.46428687     0.03300
C2194       C  0.62888601  0.61796474  0.44253227    -0.10800
H2195       H  0.65813490  0.65273695  0.37804109     0.08800
H2196       H  0.66172946  0.68006163  0.47039001     0.06400
H2197       H  0.61627593  0.59805910  0.44964488     0.06200
C2198       C  0.62132801  0.83187183  0.41489707     0.03300
C2199       C  0.61472228  0.83486468  0.44645441    -0.12900
C2200       C  0.63467479  0.82117951  0.46800648     0.00800
C2201       C  0.66170096  0.80808336  0.45699484    -0.11400
C2202       C  0.66485338  0.79937587  0.42683787     0.03300
C2203       C  0.64509852  0.81231151  0.40541963    -0.10800
H2204       H  0.59462442  0.84720149  0.45384121     0.08800
H2205       H  0.67900910  0.80100088  0.47320077     0.06400
H2206       H  0.64837104  0.80767348  0.38152243     0.06200
C2207       C  0.83364097  0.62757265  0.40625925     0.03300
C2208       C  0.81375198  0.65156273  0.39662630    -0.12900
C2209       C  0.80447341  0.67341678  0.41752868     0.00800
C2210       C  0.81810814  0.67224072  0.44619508    -0.11400
C2211       C  0.82955276  0.64462173  0.45840575     0.03300
C2212       C  0.83939232  0.62259234  0.43774297    -0.10800
H2213       H  0.80598344  0.65320988  0.37332695     0.08800
H2214       H  0.81377974  0.69073469  0.46157518     0.06400
H2215       H  0.85091437  0.60202498  0.44580329     0.06200
C2216       C  0.83347474  0.83478057  0.41238738     0.03300
C2217       C  0.83558619  0.83943717  0.44399985    -0.12900
C2218       C  0.81181967  0.82941344  0.46300443     0.00800
C2219       C  0.78541885  0.81946293  0.44906627    -0.11400
C2220       C  0.78742194  0.80650151  0.42048884     0.03300
C2221       C  0.81090383  0.81572618  0.40110803    -0.10800
H2222       H  0.85527439  0.85011041  0.45338242     0.08800
H2223       H  0.76553913  0.81495603  0.46310381     0.06400
H2224       H  0.81168633  0.80839752  0.37778291     0.06200
O2225       O  0.76101217  0.57056532  0.19272409    -0.72800
O2226       O  0.69274991  0.56635494  0.25792864    -0.73800
O2227       O  0.75913821  0.56861522  0.26088637    -0.62400
O2228       O  0.69589759  0.56804040  0.19111411    -0.70800
O2229       O  0.70193700  0.51804673  0.19284239    -0.70400
O2230       O  0.75856485  0.51849261  0.25966540    -0.61600
O2231       O  0.69653527  0.51635091  0.25507976    -0.74100
O2232       O  0.76312603  0.52033402  0.19662140    -0.72900
Cu2233     Cu  0.72722224  0.57065778  0.22581427     1.04600
Cu2234     Cu  0.73021218  0.51711400  0.22616966     1.04300
C2235       C  0.77109037  0.54494604  0.18323446     0.93400
C2236       C  0.68375329  0.53975614  0.26615516     0.92500
C2237       C  0.76801549  0.54251750  0.27164722     0.84700
C2238       C  0.68998488  0.54182202  0.18069960     0.90900
C2239       C  0.62195049  0.54667409  0.12785468     0.03300
C2240       C  0.61726736  0.51504111  0.12543672    -0.12900
C2241       C  0.63988308  0.99466816  0.13628818     0.00800
C2242       C  0.66745761  0.50679304  0.14526055    -0.11400
C2243       C  0.66854796  0.53650350  0.15557927     0.03300
C2244       C  0.64622314  0.55716441  0.14540994    -0.10800
H2245       H  0.59667962  0.50669550  0.11555076     0.08800
H2246       H  0.68623902  0.99120171  0.15015222     0.06400
H2247       H  0.64777029  0.58100727  0.15065761     0.06200
C2248       C  0.83492833  0.55189258  0.12428464     0.03300
C2249       C  0.81279517  0.56169723  0.14558157    -0.12900
C2250       C  0.79091771  0.54124832  0.15601903     0.00800
C2251       C  0.78996581  0.51303942  0.14229719    -0.11400
C2252       C  0.81640131  0.00012167  0.12977072     0.03300
C2253       C  0.83850476  0.52036398  0.11845253    -0.10800
H2254       H  0.81249428  0.58481951  0.15346829     0.08800
H2255       H  0.77079885  0.99848642  0.14724806     0.06400
H2256       H  0.85806974  0.51199092  0.10597473     0.06200
C2257       C  0.63131349  0.54633741  0.33538142     0.03300
C2258       C  0.64867431  0.55565216  0.30971615    -0.12900
C2259       C  0.65980131  0.53397027  0.28959728     0.00800
C2260       C  0.65123923  0.50377728  0.29449532    -0.11400
C2261       C  0.63992819  0.99336810  0.32272246     0.03300
C2262       C  0.62849600  0.51501508  0.34299338    -0.10800
H2263       H  0.65336166  0.57950296  0.30557251     0.08800
H2264       H  0.65755482  0.98707007  0.27779542     0.06400
H2265       H  0.61791915  0.50780152  0.36421763     0.06200
C2266       C  0.83333676  0.55057079  0.32815017     0.03300
C2267       C  0.84136438  0.51936456  0.33176244    -0.12900
C2268       C  0.82219803  0.99746588  0.32000105     0.00800
C2269       C  0.79447723  0.50755953  0.30750908    -0.11400
C2270       C  0.78997621  0.53764972  0.29721414     0.03300
C2271       C  0.80888038  0.55972373  0.30899464    -0.10800
H2272       H  0.86200926  0.51243115  0.34344118     0.08800
H2273       H  0.77803516  0.99065927  0.30165162     0.06400
H2274       H  0.80482689  0.58355186  0.30341463     0.06200
O2275       O  0.69792563  0.89109681  0.20455536    -0.72800
O2276       O  0.77160784  0.89173166  0.26308289    -0.73800
O2277       O  0.70520880  0.89011143  0.27109807    -0.62400
O2278       O  0.76523827  0.89273823  0.19801308    -0.70800
O2279       O  0.75895971  0.94271388  0.19789878    -0.70400
O2280       O  0.70704297  0.94029668  0.26978374    -0.61600
O2281       O  0.76869368  0.94188197  0.25879843    -0.74100
O2282       O  0.69674219  0.94107238  0.20799385    -0.72900
Cu2283     Cu  0.73490167  0.88917372  0.23414882     1.04600
Cu2284     Cu  0.73266479  0.94270864  0.23357077     1.04300
C2285       C  0.68562935  0.91701682  0.19750071     0.93400
C2286       C  0.78215197  0.91794935  0.26892453     0.92500
C2287       C  0.69744236  0.91582937  0.28221465     0.84700
C2288       C  0.77246534  0.91924405  0.18776463     0.90900
C2289       C  0.62872978  0.90893834  0.13241114     0.03300
C2290       C  0.64835236  0.89971854  0.15652882    -0.12900
C2291       C  0.65959327  0.92164230  0.17599615     0.00800
C2292       C  0.64861891  0.95153673  0.17207243    -0.11400
C2293       C  0.63553764  0.96183702  0.14460517     0.03300
C2294       C  0.62408020  0.94015707  0.12520044    -0.10800
H2295       H  0.65453800  0.87597479  0.16002155     0.08800
H2296       H  0.65459441  0.96835533  0.18848111     0.06400
H2297       H  0.61201327  0.94729103  0.10480223     0.06200
C2298       C  0.82913570  0.91358178  0.12147961     0.03300
C2299       C  0.80904978  0.90386377  0.14492037    -0.12900
C2300       C  0.79690839  0.92507088  0.16488606     0.00800
C2301       C  0.80726407  0.95481478  0.16235405    -0.11400
C2302       C  0.82050436  0.96635572  0.13541915     0.03300
C2303       C  0.83322080  0.94515150  0.11527005    -0.10800
H2304       H  0.80341731  0.88007712  0.14773963     0.08800
H2305       H  0.80143641  0.97043818  0.18020797     0.06400
H2306       H  0.84570679  0.95281487  0.09528779     0.06200
C2307       C  0.62899384  0.90817281  0.33524431     0.03300
C2308       C  0.62364676  0.93959716  0.33969831    -0.12900
C2309       C  0.64588579  0.96043717  0.33029006     0.00800
C2310       C  0.67394578  0.94879419  0.32028741    -0.11400
C2311       C  0.67612421  0.91964216  0.30839540     0.03300
C2312       C  0.65408226  0.89856228  0.31737059    -0.10800
H2313       H  0.60249856  0.94753652  0.34966030     0.08800
H2314       H  0.69202917  0.96471140  0.31553263     0.06400
H2315       H  0.65618232  0.87515301  0.31049592     0.06200
C2316       C  0.83868240  0.91252215  0.33376584     0.03300
C2317       C  0.81992667  0.90216920  0.31035733    -0.12900
C2318       C  0.80906258  0.92288025  0.28826913     0.00800
C2319       C  0.82016184  0.95242040  0.28835139    -0.11400
C2320       C  0.83038817  0.96463875  0.31547720     0.03300
C2321       C  0.84172049  0.94418753  0.33798279    -0.10800
H2322       H  0.81380236  0.87845618  0.30961463     0.08800
H2323       H  0.81453813  0.96788695  0.26954441     0.06400
H2324       H  0.85214775  0.95250028  0.35829130     0.06200
C2325       C  0.84531451  0.88997909  0.10446320     0.80400
N2326       N  0.83053833  0.87549854  0.08227120    -0.78000
C2327       C  0.84197099  0.84907367  0.07139954     0.82800
N2328       N  0.86777059  0.83649047  0.08343032    -0.77900
C2329       C  0.88294462  0.85095289  0.10542295     0.82900
N2330       N  0.87115625  0.87731022  0.11635467    -0.79600
O2331       O  0.52019321  0.69136817  0.25730623    -0.72800
O2332       O  0.51665130  0.76254864  0.20329820    -0.73800
O2333       O  0.51759098  0.70165713  0.19569199    -0.62400
O2334       O  0.51928317  0.75304155  0.26573760    -0.70800
O2335       O  0.56920766  0.75686167  0.26448097    -0.70400
O2336       O  0.56764498  0.69826362  0.19200203    -0.61600
O2337       O  0.56652380  0.76320549  0.19702282    -0.74100
O2338       O  0.57037688  0.69021025  0.25838501    -0.72900
Cu2339     Cu  0.51724104  0.72719709  0.23072878     1.04600
Cu2340     Cu  0.57071531  0.72722419  0.22807132     1.04300
C2341       C  0.54479861  0.67891007  0.26658070     0.93400
C2342       C  0.53990836  0.77294799  0.18952243     0.92500
C2343       C  0.54122892  0.69190054  0.18210134     0.84700
C2344       C  0.54341410  0.76376197  0.27659083     0.90900
C2345       C  0.54566182  0.62747387  0.12647329     0.03300
C2346       C  0.55631785  0.65086679  0.14480176    -0.12900
C2347       C  0.53567897  0.67241785  0.15579785     0.00800
C2348       C  0.50580045  0.67173377  0.14545992    -0.11400
C2349       C  0.99384047  0.64474348  0.13489669     0.03300
C2350       C  0.51415134  0.62288322  0.12349079    -0.10800
H2351       H  0.58015138  0.65199318  0.15050143     0.08800
H2352       H  0.99016574  0.69003075  0.15131012     0.06400
H2353       H  0.50581793  0.60271254  0.11294380     0.06200
C2354       C  0.54556361  0.83808737  0.13041056     0.03300
C2355       C  0.51394818  0.84391224  0.12552083    -0.12900
C2356       C  0.99251806  0.82401408  0.13903013     0.00800
C2357       C  0.50407926  0.79761635  0.15378844    -0.11400
C2358       C  0.53381405  0.79551585  0.16443843     0.03300
C2359       C  0.55503972  0.81528866  0.15168078    -0.10800
H2360       H  0.50643981  0.86334282  0.11177758     0.08800
H2361       H  0.98857660  0.77965135  0.16016758     0.06400
H2362       H  0.57879553  0.81263318  0.15761773     0.06200
C2363       C  0.55331875  0.62424397  0.33461840     0.03300
C2364       C  0.52183976  0.61981029  0.34028745    -0.12900
C2365       C  0.00068962  0.62977400  0.31807961     0.00800
C2366       C  0.51222555  0.63999296  0.28991477    -0.11400
C2367       C  0.54126618  0.65228406  0.28781977     0.03300
C2368       C  0.56257348  0.64293576  0.30969442    -0.10800
H2369       H  0.51416826  0.60922427  0.36141059     0.08800
H2370       H  0.99630142  0.64471936  0.27162017     0.06400
H2371       H  0.58597942  0.64990859  0.30743109     0.06200
C2372       C  0.55105067  0.82997313  0.33101493     0.03300
C2373       C  0.51978721  0.83645912  0.33532430    -0.12900
C2374       C  0.99843817  0.81611600  0.32474127     0.00800
C2375       C  0.50915320  0.78852217  0.31315835    -0.11400
C2376       C  0.53890015  0.78533394  0.30206412     0.03300
C2377       C  0.56052614  0.80571022  0.31233051    -0.10800
H2378       H  0.51237667  0.85692952  0.34655062     0.08800
H2379       H  0.99261830  0.77144619  0.30802200     0.06400
H2380       H  0.58423047  0.80272167  0.30623932     0.06200
O2381       O  0.94006363  0.69952243  0.20288852    -0.72800
O2382       O  0.94164803  0.76675537  0.25756495    -0.73800
O2383       O  0.94387735  0.70457993  0.26476535    -0.62400
O2384       O  0.93815239  0.76225929  0.19645413    -0.70800
O2385       O  0.88804553  0.76597614  0.19903775    -0.70400
O2386       O  0.89399757  0.70118653  0.26911780    -0.61600
O2387       O  0.89184538  0.76789157  0.26424876    -0.74100
O2388       O  0.88997277  0.69780387  0.20276925    -0.72900
Cu2389     Cu  0.94209283  0.73318353  0.23021914     1.04600
Cu2390     Cu  0.88866891  0.73303648  0.23380311     1.04300
C2391       C  0.91589531  0.68723176  0.19399948     0.93400
C2392       C  0.91813578  0.77859790  0.26963954     0.92500
C2393       C  0.92078308  0.69333362  0.27808211     0.84700
C2394       C  0.91349860  0.77548650  0.18838235     0.90900
C2395       C  0.90875672  0.63226527  0.12836264     0.03300
C2396       C  0.93999649  0.62873855  0.12168882    -0.12900
C2397       C  0.96118449  0.63951878  0.14211220     0.00800
C2398       C  0.95044441  0.65073834  0.16976199    -0.11400
C2399       C  0.92052511  0.66149964  0.17284421     0.03300
C2400       C  0.89893802  0.65068956  0.15267174    -0.10800
H2401       H  0.94751117  0.61785924  0.10108529     0.08800
H2402       H  0.96692468  0.65596574  0.18697869     0.06400
H2403       H  0.87512523  0.65649404  0.15557434     0.06200
C2404       C  0.90650203  0.83444926  0.12321815     0.03300
C2405       C  0.89673210  0.81298874  0.14564256    -0.12900
C2406       C  0.91715931  0.80266257  0.16788480     0.00800
C2407       C  0.94538181  0.81658948  0.16879354    -0.11400
C2408       C  0.95848482  0.82910435  0.14221899     0.03300
C2409       C  0.93814560  0.84040698  0.11973401    -0.10800
H2410       H  0.87357867  0.80504116  0.14600374     0.08800
H2411       H  0.95971242  0.81201192  0.18839939     0.06400
H2412       H  0.94648414  0.85315241  0.10009630     0.06200
C2413       C  0.91452062  0.62453015  0.33225835     0.03300
C2414       C  0.90537107  0.65006505  0.31426149    -0.12900
C2415       C  0.92701267  0.67008556  0.30259888     0.00800
C2416       C  0.95726613  0.66528408  0.31122625    -0.11400
C2417       C  0.96765938  0.63722702  0.32362894     0.03300
C2418       C  0.94583304  0.61700414  0.33554492    -0.10800
H2419       H  0.88154018  0.65414442  0.30937267     0.08800
H2420       H  0.97391633  0.68201910  0.30434293     0.06400
H2421       H  0.95288420  0.59586469  0.34673374     0.06200
C2422       C  0.91356147  0.83219753  0.33619765     0.03300
C2423       C  0.90308060  0.81434538  0.31228154    -0.12900
C2424       C  0.92382945  0.80362317  0.29074759     0.00800
C2425       C  0.95373509  0.81354284  0.29222189    -0.11400
C2426       C  0.96559051  0.82348443  0.31956947     0.03300
C2427       C  0.94510890  0.83476553  0.34133597    -0.10800
H2428       H  0.87919294  0.80927296  0.31040268     0.08800
H2429       H  0.96950199  0.80818409  0.27399016     0.06400
H2430       H  0.95333196  0.84516330  0.36167030     0.06200
C2431       C  0.56780154  0.60902365  0.11014258     0.80400
N2432       N  0.58078568  0.62112988  0.08455152    -0.78000
C2433       C  0.60475087  0.60689231  0.07132084     0.82800
N2434       N  0.61660951  0.58135194  0.08477055    -0.77900
C2435       C  0.60401713  0.56924790  0.11049746     0.82900
N2436       N  0.57996491  0.58356055  0.12363788    -0.79600
C2437       C  0.85488253  0.88964095  0.85255716     0.80400
N2438       N  0.84105744  0.87695276  0.87724682    -0.78000
C2439       C  0.85257650  0.85105997  0.89053245     0.82800
N2440       N  0.87714893  0.83689483  0.87811272    -0.77900
C2441       C  0.89120313  0.84965207  0.85350777     0.82900
N2442       N  0.87955306  0.87552564  0.84044599    -0.79600
C2443       C  0.61201511  0.88615389  0.61586761     0.80400
N2444       N  0.62447983  0.87275168  0.59110193    -0.78000
C2445       C  0.60934518  0.85039516  0.57717032     0.82800
N2446       N  0.58235917  0.84082509  0.58885327    -0.77900
C2447       C  0.56971991  0.85416639  0.61354728     0.82900
N2448       N  0.58501306  0.87642563  0.62732236    -0.79600
C2449       C  0.89045634  0.60741332  0.84792176     0.80400
N2450       N  0.87667932  0.62031619  0.87221529    -0.78000
C2451       C  0.84984928  0.60986710  0.88315685     0.82800
N2452       N  0.83604753  0.58695209  0.86888263    -0.77900
C2453       C  0.84974611  0.57365497  0.84464955     0.82900
N2454       N  0.87668304  0.58427951  0.83381982    -0.79600
C2455       C  0.61657854  0.60884452  0.88813183     0.80400
N2456       N  0.62906179  0.58329384  0.87616443    -0.78000
C2457       C  0.61531210  0.56984628  0.85261185     0.82800
N2458       N  0.58972562  0.58261557  0.84053619    -0.77900
C2459       C  0.57704986  0.60805483  0.85232680     0.82900
N2460       N  0.59096093  0.62157876  0.87574020    -0.79600
C2461       C  0.61001948  0.88508453  0.85034558     0.80400
N2462       N  0.61900209  0.87351354  0.87781344    -0.78000
C2463       C  0.60516571  0.84902172  0.89074452     0.82800
N2464       N  0.58285556  0.83536288  0.87533715    -0.77900
C2465       C  0.57360576  0.84675321  0.84785218     0.82900
N2466       N  0.58763187  0.87127234  0.83499769    -0.79600
C2467       C  0.88665408  0.61578693  0.61088385     0.80400
N2468       N  0.87650890  0.62718350  0.58377490    -0.78000
C2469       C  0.85475293  0.61240879  0.56854256     0.82800
N2470       N  0.84261827  0.58676603  0.58114834    -0.77900
C2471       C  0.85285706  0.57515391  0.60816213     0.82900
N2472       N  0.87437806  0.59020005  0.62330559    -0.79600
O2473       O  0.75891195  0.75783427  0.56866358    -0.72800
O2474       O  0.69624607  0.68865595  0.57015587    -0.73800
O2475       O  0.76139609  0.69142103  0.56653471    -0.62400
O2476       O  0.69108068  0.75545989  0.57138854    -0.70800
O2477       O  0.69082607  0.75496031  0.52117931    -0.70400
O2478       O  0.75791479  0.69719575  0.51658027    -0.61600
O2479       O  0.69671765  0.69277067  0.51988965    -0.74100
O2480       O  0.75356700  0.75933582  0.51874561    -0.72900
Cu2481     Cu  0.72692475  0.72352499  0.57144016     1.04600
Cu2482     Cu  0.72464373  0.72636089  0.51789341     1.04300
C2483       C  0.76688322  0.76840269  0.54237379     0.93400
C2484       C  0.68823647  0.67900551  0.54421022     0.92500
C2485       C  0.76969127  0.68385270  0.53967650     0.84700
C2486       C  0.67929351  0.76425175  0.54589117     0.87700
C2487       C  0.62348564  0.62323109  0.54883518     0.03300
C2488       C  0.64615403  0.64247265  0.55972269    -0.12900
C2489       C  0.66924869  0.65199460  0.53995888     0.00800
C2490       C  0.67083078  0.63920012  0.51130597    -0.11400
C2491       C  0.64430022  0.62924149  0.99765527     0.03300
C2492       C  0.62085585  0.61886174  0.51708777    -0.10800
H2493       H  0.64577792  0.64968011  0.58309108     0.08800
H2494       H  0.69054977  0.64373268  0.99704747     0.06400
H2495       H  0.60110371  0.60810576  0.50795376     0.06200
C2496       C  0.62452511  0.83207049  0.55385221     0.03300
C2497       C  0.61911049  0.83753723  0.52234405    -0.12900
C2498       C  0.62859849  0.81552696  0.00146614     0.00800
C2499       C  0.63950065  0.78756706  0.51351449    -0.11400
C2500       C  0.65278673  0.78573582  0.54236168     0.03300
C2501       C  0.64379205  0.80754988  0.56338125    -0.10800
H2502       H  0.60819552  0.85848125  0.51442971     0.08800
H2503       H  0.64360309  0.76915027  0.99799160     0.06400
H2504       H  0.65143492  0.80555298  0.58670652     0.06200
C2505       C  0.83753688  0.62884468  0.54474572     0.03300
C2506       C  0.81322495  0.64764340  0.55444502    -0.12900
C2507       C  0.79300347  0.66008219  0.53316278     0.00800
C2508       C  0.79636868  0.65162380  0.50292707    -0.11400
C2509       C  0.82364561  0.63910505  0.99183171     0.03300
C2510       C  0.84402810  0.62601430  0.51321620    -0.10800
H2511       H  0.80999408  0.65216959  0.57836938     0.08800
H2512       H  0.77890854  0.65837123  0.98675999     0.06400
H2513       H  0.86443643  0.61427738  0.50570913     0.06200
C2514       C  0.82488253  0.83248661  0.54897360     0.03300
C2515       C  0.82815255  0.84015478  0.51771707    -0.12900
C2516       C  0.81468071  0.82188813  0.99620595     0.00800
C2517       C  0.80064785  0.79522958  0.50662793    -0.11400
C2518       C  0.79154189  0.79089828  0.53687352     0.03300
C2519       C  0.80494533  0.80906089  0.55866516    -0.10800
H2520       H  0.84090885  0.85990483  0.51044179     0.08800
H2521       H  0.79398532  0.77887588  0.99006916     0.06400
H2522       H  0.80016094  0.80513022  0.58261157     0.06200
O2523       O  0.70307646  0.69928051  0.94194667    -0.72800
O2524       O  0.76028203  0.76551612  0.94036506    -0.73800
O2525       O  0.69910449  0.76154091  0.94361241    -0.62400
O2526       O  0.76588199  0.70332522  0.93896634    -0.70800
O2527       O  0.76574898  0.70322466  0.88873061    -0.70400
O2528       O  0.69575545  0.76734384  0.89363704    -0.61600
O2529       O  0.76065687  0.76989227  0.89010337    -0.74100
O2530       O  0.69785063  0.70078641  0.89200137    -0.72900
Cu2531     Cu  0.73219654  0.73210491  0.94242474     1.04600
Cu2532     Cu  0.72995346  0.73509164  0.88885720     1.04300
C2533       C  0.68981661  0.69021856  0.91831198     0.93400
C2534       C  0.76865674  0.77942011  0.91609957     0.92500
C2535       C  0.68760225  0.77507706  0.92046633     0.84700
C2536       C  0.77756013  0.69436522  0.91417279     0.90900
C2537       C  0.63299290  0.62532350  0.91123332     0.03300
C2538       C  0.65276141  0.64897120  0.90189278    -0.12900
C2539       C  0.66520507  0.66763939  0.92374869     0.00800
C2540       C  0.65541158  0.66352518  0.95385843    -0.11400
C2541       C  0.64144105  0.63672145  0.96428683     0.03300
C2542       C  0.62888600  0.61796485  0.94253218    -0.10800
H2543       H  0.65813493  0.65273689  0.87804099     0.08800
H2544       H  0.66172950  0.68006210  0.97039032     0.06400
H2545       H  0.61627546  0.59805851  0.94964506     0.06200
C2546       C  0.62132798  0.83187178  0.91489705     0.03300
C2547       C  0.61472222  0.83486466  0.94645441    -0.12900
C2548       C  0.63467477  0.82117952  0.96800648     0.00800
C2549       C  0.66170100  0.80808340  0.95699486    -0.11400
C2550       C  0.66485337  0.79937592  0.92683784     0.03300
C2551       C  0.64509850  0.81231147  0.90541952    -0.10800
H2552       H  0.59462461  0.84720132  0.95384112     0.08800
H2553       H  0.67900891  0.80100107  0.97320053     0.06400
H2554       H  0.64837095  0.80767353  0.88152280     0.06200
C2555       C  0.83364097  0.62757260  0.90625929     0.03300
C2556       C  0.81375196  0.65156267  0.89662635    -0.12900
C2557       C  0.80447337  0.67341672  0.91752875     0.00800
C2558       C  0.81810815  0.67224069  0.94619512    -0.11400
C2559       C  0.82955275  0.64462169  0.95840580     0.03300
C2560       C  0.83939231  0.62259229  0.93774302    -0.10800
H2561       H  0.80598342  0.65320983  0.87332705     0.08800
H2562       H  0.81377976  0.69073468  0.96157520     0.06400
H2563       H  0.85091438  0.60202490  0.94580336     0.06200
C2564       C  0.83347476  0.83478055  0.91238740     0.03300
C2565       C  0.83558634  0.83943728  0.94399991    -0.12900
C2566       C  0.81181970  0.82941343  0.96300446     0.00800
C2567       C  0.78541890  0.81946288  0.94906633    -0.11400
C2568       C  0.78742196  0.80650149  0.92048890     0.03300
C2569       C  0.81090386  0.81572616  0.90110805    -0.10800
H2570       H  0.85527377  0.85011013  0.95338209     0.08800
H2571       H  0.76553914  0.81495593  0.96310390     0.06400
H2572       H  0.81168628  0.80839758  0.87778319     0.06200
O2573       O  0.76101217  0.57056527  0.69272416    -0.72800
O2574       O  0.69274987  0.56635489  0.75792863    -0.73800
O2575       O  0.75913820  0.56861520  0.76088630    -0.62400
O2576       O  0.69589745  0.56804044  0.69111419    -0.70800
O2577       O  0.70193702  0.51804681  0.69284235    -0.70400
O2578       O  0.75856485  0.51849262  0.75966533    -0.61600
O2579       O  0.69653529  0.51635087  0.75507984    -0.74100
O2580       O  0.76312599  0.52033399  0.69662139    -0.72900
Cu2581     Cu  0.72722219  0.57065775  0.72581430     1.04600
Cu2582     Cu  0.73021217  0.51711407  0.72616967     1.04300
C2583       C  0.77109034  0.54494600  0.68323447     0.93400
C2584       C  0.68375328  0.53975610  0.76615521     0.92500
C2585       C  0.76801546  0.54251748  0.77164716     0.84700
C2586       C  0.68998484  0.54182205  0.68069959     0.90900
C2587       C  0.62195048  0.54667410  0.62785465     0.03300
C2588       C  0.61726740  0.51504109  0.62543660    -0.12900
C2589       C  0.63988307  0.99466812  0.63628808     0.00800
C2590       C  0.66745766  0.50679296  0.64526061    -0.11400
C2591       C  0.66854790  0.53650354  0.65557928     0.03300
C2592       C  0.64622307  0.55716429  0.64540997    -0.10800
H2593       H  0.59667965  0.50669550  0.61555059     0.08800
H2594       H  0.68623856  0.99120205  0.65015218     0.06400
H2595       H  0.64777023  0.58100779  0.65065785     0.06200
C2596       C  0.83492833  0.55189255  0.62428466     0.03300
C2597       C  0.81279510  0.56169720  0.64558153    -0.12900
C2598       C  0.79091763  0.54124829  0.65601899     0.00800
C2599       C  0.78996576  0.51303941  0.64229715    -0.11400
C2600       C  0.81640130  0.00012164  0.62977079     0.03300
C2601       C  0.83850472  0.52036396  0.61845263    -0.10800
H2602       H  0.81249417  0.58481952  0.65346824     0.08800
H2603       H  0.77079911  0.99848653  0.64724806     0.06400
H2604       H  0.85806993  0.51199077  0.60597467     0.06200
C2605       C  0.63131345  0.54633738  0.83538144     0.03300
C2606       C  0.64867429  0.55565215  0.80971613    -0.12900
C2607       C  0.65980128  0.53397021  0.78959731     0.00800
C2608       C  0.65123909  0.50377734  0.79449536    -0.11400
C2609       C  0.63992819  0.99336810  0.82272248     0.03300
C2610       C  0.62849602  0.51501512  0.84299325    -0.10800
H2611       H  0.65336162  0.57950282  0.80557249     0.08800
H2612       H  0.65755489  0.98706979  0.77779520     0.06400
H2613       H  0.61791868  0.50780123  0.86421837     0.06200
C2614       C  0.83333665  0.55057076  0.82815013     0.03300
C2615       C  0.84136431  0.51936450  0.83176239    -0.12900
C2616       C  0.82219800  0.99746588  0.82000096     0.00800
C2617       C  0.79447700  0.50755942  0.80750903    -0.11400
C2618       C  0.78997606  0.53764974  0.79721418     0.03300
C2619       C  0.80888026  0.55972367  0.80899466    -0.10800
H2620       H  0.86200891  0.51243118  0.84344091     0.08800
H2621       H  0.77803553  0.99065972  0.80165174     0.06400
H2622       H  0.80482681  0.58355210  0.80341456     0.06200
O2623       O  0.69792560  0.89109677  0.70455534    -0.72800
O2624       O  0.77160781  0.89173162  0.76308291    -0.73800
O2625       O  0.70520876  0.89011139  0.77109797    -0.62400
O2626       O  0.76523825  0.89273825  0.69801308    -0.70800
O2627       O  0.75895972  0.94271391  0.69789884    -0.70400
O2628       O  0.70704297  0.94029663  0.76978377    -0.61600
O2629       O  0.76869364  0.94188193  0.75879852    -0.74100
O2630       O  0.69674220  0.94107235  0.70799377    -0.72900
Cu2631     Cu  0.73490166  0.88917368  0.73414878     1.04600
Cu2632     Cu  0.73266479  0.94270861  0.73357081     1.04300
C2633       C  0.68562935  0.91701677  0.69750063     0.93400
C2634       C  0.78215195  0.91794930  0.76892458     0.92500
C2635       C  0.69744234  0.91582929  0.78221462     0.84700
C2636       C  0.77246530  0.91924407  0.68776464     0.90900
C2637       C  0.62872973  0.90893831  0.63241105     0.03300
C2638       C  0.64835236  0.89971850  0.65652869    -0.12900
C2639       C  0.65959328  0.92164226  0.67599604     0.00800
C2640       C  0.64861890  0.95153662  0.67207228    -0.11400
C2641       C  0.63553761  0.96183699  0.64460508     0.03300
C2642       C  0.62408006  0.94015701  0.62520048    -0.10800
H2643       H  0.65453802  0.87597475  0.66002139     0.08800
H2644       H  0.65459452  0.96835551  0.68848127     0.06400
H2645       H  0.61201283  0.94729109  0.60480194     0.06200
C2646       C  0.82913570  0.91358173  0.62147965     0.03300
C2647       C  0.80904976  0.90386371  0.64492042    -0.12900
C2648       C  0.79690834  0.92507085  0.66488605     0.00800
C2649       C  0.80726404  0.95481478  0.66235416    -0.11400
C2650       C  0.82050438  0.96635567  0.63541920     0.03300
C2651       C  0.83322075  0.94515142  0.61527019    -0.10800
H2652       H  0.80341730  0.88007714  0.64773967     0.08800
H2653       H  0.80143654  0.97043785  0.68020773     0.06400
H2654       H  0.84570699  0.95281498  0.59528747     0.06200
C2655       C  0.62899382  0.90817279  0.83524432     0.03300
C2656       C  0.62364671  0.93959715  0.83969835    -0.12900
C2657       C  0.64588578  0.96043714  0.83029002     0.00800
C2658       C  0.67394575  0.94879415  0.82028734    -0.11400
C2659       C  0.67612422  0.91964209  0.80839541     0.03300
C2660       C  0.65408227  0.89856213  0.81737062    -0.10800
H2661       H  0.60249885  0.94753641  0.84966021     0.08800
H2662       H  0.69202913  0.96471137  0.81553253     0.06400
H2663       H  0.65618228  0.87515341  0.81049616     0.06200
C2664       C  0.83868239  0.91252212  0.83376580     0.03300
C2665       C  0.81992667  0.90216906  0.81035727    -0.12900
C2666       C  0.80906260  0.92288022  0.78826909     0.00800
C2667       C  0.82016182  0.95242036  0.78835138    -0.11400
C2668       C  0.83038814  0.96463873  0.81547716     0.03300
C2669       C  0.84172045  0.94418750  0.83798279    -0.10800
H2670       H  0.81380249  0.87845667  0.80961458     0.08800
H2671       H  0.81453807  0.96788699  0.76954430     0.06400
H2672       H  0.85214760  0.95250020  0.85829118     0.06200
C2673       C  0.84531449  0.88997903  0.60446324     0.80400
N2674       N  0.83053834  0.87549853  0.58227116    -0.78000
C2675       C  0.84197099  0.84907367  0.57139949     0.82800
N2676       N  0.86777059  0.83649045  0.58343026    -0.77900
C2677       C  0.88294459  0.85095284  0.60542295     0.82900
N2678       N  0.87115619  0.87731013  0.61635471    -0.79600
O2679       O  0.52019319  0.69136823  0.75730628    -0.72800
O2680       O  0.51665130  0.76254865  0.70329818    -0.73800
O2681       O  0.51759097  0.70165710  0.69569201    -0.62400
O2682       O  0.51928315  0.75304162  0.76573755    -0.70800
O2683       O  0.56920766  0.75686162  0.76448097    -0.70400
O2684       O  0.56764496  0.69826357  0.69200200    -0.61600
O2685       O  0.56652379  0.76320548  0.69702274    -0.74100
O2686       O  0.57037687  0.69021019  0.75838488    -0.72900
Cu2687     Cu  0.51724103  0.72719714  0.73072879     1.04600
Cu2688     Cu  0.57071530  0.72722415  0.72807125     1.04300
C2689       C  0.54479858  0.67891003  0.76658062     0.93400
C2690       C  0.53990835  0.77294804  0.68952245     0.92500
C2691       C  0.54122890  0.69190051  0.68210132     0.84700
C2692       C  0.54341411  0.76376197  0.77659082     0.90900
C2693       C  0.54566181  0.62747383  0.62647328     0.03300
C2694       C  0.55631784  0.65086678  0.64480168    -0.12900
C2695       C  0.53567895  0.67241785  0.65579778     0.00800
C2696       C  0.50580044  0.67173373  0.64545982    -0.11400
C2697       C  0.99384046  0.64474347  0.63489667     0.03300
C2698       C  0.51415131  0.62288314  0.62349070    -0.10800
H2699       H  0.58015139  0.65199319  0.65050134     0.08800
H2700       H  0.99016577  0.69003060  0.65131015     0.06400
H2701       H  0.50581803  0.60271271  0.61294387     0.06200
C2702       C  0.54556362  0.83808735  0.63041055     0.03300
C2703       C  0.51394820  0.84391219  0.62552092    -0.12900
C2704       C  0.99251805  0.82401403  0.63903019     0.00800
C2705       C  0.50407924  0.79761639  0.65378853    -0.11400
C2706       C  0.53381403  0.79551595  0.66443853     0.03300
C2707       C  0.55503972  0.81528869  0.65168085    -0.10800
H2708       H  0.50643970  0.86334307  0.61177736     0.08800
H2709       H  0.98857657  0.77965128  0.66016772     0.06400
H2710       H  0.57879554  0.81263317  0.65761777     0.06200
C2711       C  0.55331873  0.62424394  0.83461832     0.03300
C2712       C  0.52183968  0.61981023  0.84028749    -0.12900
C2713       C  0.00068961  0.62977397  0.81807961     0.00800
C2714       C  0.51222548  0.63999288  0.78991466    -0.11400
C2715       C  0.54126616  0.65228399  0.78781966     0.03300
C2716       C  0.56257331  0.64293568  0.80969434    -0.10800
H2717       H  0.51416843  0.60922452  0.86141006     0.08800
H2718       H  0.99630141  0.64471932  0.77162014     0.06400
H2719       H  0.58597997  0.64990874  0.80743092     0.06200
C2720       C  0.55105062  0.82997309  0.83101499     0.03300
C2721       C  0.51978717  0.83645911  0.83532439    -0.12900
C2722       C  0.99843817  0.81611597  0.82474122     0.00800
C2723       C  0.50915325  0.78852217  0.81315844    -0.11400
C2724       C  0.53890013  0.78533388  0.80206416     0.03300
C2725       C  0.56052613  0.80571017  0.81233059    -0.10800
H2726       H  0.51237670  0.85692929  0.84655052     0.08800
H2727       H  0.99261832  0.77144604  0.80802212     0.06400
H2728       H  0.58423038  0.80272165  0.80623938     0.06200
O2729       O  0.94006361  0.69952240  0.70288854    -0.72800
O2730       O  0.94164803  0.76675528  0.75756497    -0.73800
O2731       O  0.94387733  0.70457989  0.76476538    -0.62400
O2732       O  0.93815238  0.76225926  0.69645413    -0.70800
O2733       O  0.88804551  0.76597607  0.69903762    -0.70400
O2734       O  0.89399755  0.70118651  0.76911782    -0.61600
O2735       O  0.89184536  0.76789155  0.76424865    -0.74100
O2736       O  0.88997275  0.69780387  0.70276915    -0.72900
Cu2737     Cu  0.94209282  0.73318349  0.73021912     1.04600
Cu2738     Cu  0.88866890  0.73303644  0.73380302     1.04300
C2739       C  0.91589531  0.68723176  0.69399945     0.93400
C2740       C  0.91813576  0.77859783  0.76963951     0.92500
C2741       C  0.92078305  0.69333361  0.77808215     0.84700
C2742       C  0.91349860  0.77548644  0.68838228     0.90900
C2743       C  0.90875670  0.63226528  0.62836263     0.03300
C2744       C  0.93999644  0.62873855  0.62168895    -0.12900
C2745       C  0.96118448  0.63951870  0.64211223     0.00800
C2746       C  0.95044446  0.65073832  0.66976208    -0.11400
C2747       C  0.92052512  0.66149963  0.67284419     0.03300
C2748       C  0.89893802  0.65068954  0.65267179    -0.10800
H2749       H  0.94751131  0.61785898  0.60108490     0.08800
H2750       H  0.96692445  0.65596564  0.68697850     0.06400
H2751       H  0.87512524  0.65649399  0.65557441     0.06200
C2752       C  0.90650201  0.83444923  0.62321814     0.03300
C2753       C  0.89673210  0.81298866  0.64564250    -0.12900
C2754       C  0.91715931  0.80266249  0.66788473     0.00800
C2755       C  0.94538180  0.81658944  0.66879357    -0.11400
C2756       C  0.95848482  0.82910428  0.64221900     0.03300
C2757       C  0.93814559  0.84040696  0.61973404    -0.10800
H2758       H  0.87357868  0.80504104  0.64600364     0.08800
H2759       H  0.95971224  0.81201195  0.68839925     0.06400
H2760       H  0.94648416  0.85315246  0.60009628     0.06200
C2761       C  0.91452058  0.62453010  0.83225831     0.03300
C2762       C  0.90537099  0.65006500  0.81426144    -0.12900
C2763       C  0.92701262  0.67008553  0.80259890     0.00800
C2764       C  0.95726609  0.66528401  0.81122619    -0.11400
C2765       C  0.96765935  0.63722696  0.82362886     0.03300
C2766       C  0.94583300  0.61700409  0.83554482    -0.10800
H2767       H  0.88154029  0.65414430  0.80937263     0.08800
H2768       H  0.97391628  0.68201902  0.80434287     0.06400
H2769       H  0.95288419  0.59586460  0.84673365     0.06200
C2770       C  0.91356145  0.83219754  0.83619755     0.03300
C2771       C  0.90308057  0.81434537  0.81228144    -0.12900
C2772       C  0.92382944  0.80362310  0.79074755     0.00800
C2773       C  0.95373510  0.81354264  0.79222192    -0.11400
C2774       C  0.96559050  0.82348433  0.81956947     0.03300
C2775       C  0.94510884  0.83476546  0.84133583    -0.10800
H2776       H  0.87919291  0.80927298  0.81040256     0.08800
H2777       H  0.96950203  0.80818383  0.77399023     0.06400
H2778       H  0.95333210  0.84516352  0.86167066     0.06200
C2779       C  0.56780152  0.60902364  0.61014257     0.80400
N2780       N  0.58078568  0.62112991  0.58455152    -0.78000
C2781       C  0.60475085  0.60689231  0.57132085     0.82800
N2782       N  0.61660951  0.58135198  0.58477058    -0.77900
C2783       C  0.60401713  0.56924792  0.61049748     0.82900
N2784       N  0.57996488  0.58356054  0.62363785    -0.79600
loop_ 
_geom_bond_atom_site_label_1 
_geom_bond_atom_site_label_2 
_geom_bond_distance 
_geom_bond_site_symmetry_2 
_ccdc_geom_bond_type 
C1            N2   1.354       .  A
C1            N6   1.355       .  A
C1          C228   1.466       .  S
N2            C3   1.359       .  A
C3            N4   1.358       .  A
C3          C128   1.455       .  S
N4            C5   1.356       .  A
C5            N6   1.357       .  A
C5          C334   1.461       .  S
C7            N8   1.360       .  A
C7           N12   1.360       .  A
C7          C201   1.466       .  S
N8            C9   1.359       .  A
C9           N10   1.360       .  A
C9           C60   1.471       .  S
N10          C11   1.359       .  A
C11          N12   1.356       .  A
C11         C266   1.473       .  S
C13          N14   1.357       .  A
C13          N18   1.360       .  A
C13         C325   1.468       .  S
N14          C15   1.356       .  A
C15          N16   1.357       .  A
C15         C119   1.470       .  S
N16          C17   1.361       .  A
C17          N18   1.361       .  A
C17         C178   1.467       .  S
C19          N20   1.360       .  A
C19          N24   1.363       .  A
C19         C101   1.466       .  S
N20          C21   1.358       .  A
C21          N22   1.357       .  A
C21         C169   1.466       .  S
N22          C23   1.356       .  A
C23          N24   1.358       .  A
C23         C275   1.472       .  S
C25          N26   1.358       .  A
C25          N30   1.360       .  A
C25         C219   1.469       .  S
N26          C27   1.357       .  A
C27          N28   1.356       .  A
C27         C110   1.469       .  S
N28          C29   1.359       .  A
C29          N30   1.361       .  A
C29         C284   1.465       .  S
C31          N32   1.357       .  A
C31          N36   1.358       .  A
C31         C307   1.459       .  S
N32          C33   1.358       .  A
C33          N34   1.360       .  A
C33          C69   1.466       .  S
N34          C35   1.358       .  A
C35          N36   1.354       .  A
C35         C160   1.468       .  S
O37         Cu45   2.083       .  S
O37          C47   1.284       .  A
O38         Cu45   2.064       .  S
O38          C48   1.282       .  A
O39         Cu45   2.070       .  S
O39          C49   1.285       .  A
O40         Cu45   2.096       .  S
O40          C50   1.287       .  A
O41         Cu46   1.941       .  S
O41          C50   1.271       .  A
O42         Cu46   1.933       .  S
O42          C49   1.270       .  A
O43         Cu46   1.939       .  S
O43          C48   1.272       .  A
O44         Cu46   1.948       .  S
O44          C47   1.274       .  A
Cu45        Cu46   2.358       .  S
C47          C82   1.496       .  S
C48          C53   1.482       .  S
C49          C71   1.485       .  S
C50          C64   1.496       .  S
C51         C345   1.465       .  S
C51          C52   1.414       .  A
C51          C56   1.421       .  A
C52          C53   1.396       .  A
C52          H57   1.084       .  S
C53          C54   1.395       .  A
C54         C403   1.400   1_554  A
C54         H406   1.086   1_554  S
C55         C105   1.502       .  S
C55         C402   1.400       .  A
C55         C404   1.410       .  A
C56         C403   1.410   1_554  A
C56          H59   1.082       .  S
H58         C402   1.086       .  S
C60          C61   1.422       .  A
C60          C65   1.418       .  A
C61         C410   1.408       .  A
C61          H66   1.083       .  S
C62         C112   1.509       .  S
C62         C409   1.408       .  A
C62         C411   1.406       .  A
C63          C64   1.401       .  A
C63         C410   1.406       .  A
C63         H415   1.085   1_554  S
C64          C65   1.400       .  A
C65          H68   1.083       .  S
H67         C411   1.085       .  S
C69          C70   1.412       .  A
C69          C74   1.422       .  A
C70          C71   1.393       .  A
C70          H75   1.084       .  S
C71          C72   1.397       .  A
C72         C421   1.403   1_554  A
C72         H424   1.084   1_554  S
C73         C123   1.505       .  S
C73         C420   1.403       .  A
C73         C422   1.411       .  A
C74         C421   1.411   1_554  A
C74          H77   1.083       .  S
H76         C420   1.084       .  S
C78         C239   1.463       .  S
C78          C79   1.414       .  A
C78          C83   1.421       .  A
C79         C428   1.399   1_554  A
C79          H84   1.083       .  S
C80         C130   1.495       .  S
C80         C427   1.399       .  A
C80         C429   1.400       .  A
C81          C82   1.396       .  A
C81         C428   1.400   1_554  A
C81         H433   1.083   1_554  S
C82          C83   1.404       .  A
C83          H86   1.083       .  S
H85         C429   1.083       .  S
O87         Cu95   1.949       .  S
O87          C97   1.273       .  A
O88         Cu95   1.937       .  S
O88          C98   1.272       .  A
O89         Cu95   1.935       .  S
O89          C99   1.271       .  A
O90         Cu95   1.942       .  S
O90         C100   1.271       .  A
O91         Cu96   2.092       .  S
O91         C100   1.286       .  A
O92         Cu96   2.065       .  S
O92          C99   1.284       .  A
O93         Cu96   2.062       .  S
O93          C98   1.282       .  A
O94         Cu96   2.087       .  S
O94          C97   1.285       .  A
Cu95        Cu96   2.359       .  S
C97         C103   1.497       .  S
C98         C132   1.479       .  S
C99         C114   1.484       .  S
C100        C121   1.495       .  S
C101        C102   1.419       .  A
C101        C106   1.417       .  A
C102        C103   1.401       .  A
C102        H107   1.083       .  S
C103        C104   1.398       .  A
C104        C105   1.405       .  A
C104        H108   1.083       .  S
C105        C106   1.403       .  A
C106        H109   1.083       .  S
C110        C111   1.425       .  A
C110        C115   1.412       .  A
C111        C112   1.414       .  A
C111        H116   1.083       .  S
C112        C113   1.402       .  A
C113        C114   1.396       .  A
C113        H117   1.084       .  S
C114        C115   1.392       .  A
C115        H118   1.084       .  S
C119        C120   1.419       .  A
C119        C124   1.421       .  A
C120        C121   1.402       .  A
C120        H125   1.083       .  S
C121        C122   1.400       .  A
C122        C123   1.403       .  A
C122        H126   1.085       .  S
C123        C124   1.407       .  A
C124        H127   1.083       .  S
C128        C129   1.415       .  A
C128        C133   1.412       .  A
C129        C130   1.405       .  A
C129        H134   1.083       .  S
C130        C131   1.401       .  A
C131        C132   1.395       .  A
C131        H135   1.086       .  S
C132        C133   1.394       .  A
C133        H136   1.084       .  S
O137       Cu145   2.074       .  S
O137        C147   1.283       .  A
O138       Cu145   2.074       .  S
O138        C148   1.284       .  A
O139       Cu145   2.094       .  S
O139        C149   1.287       .  A
O140       Cu145   2.072       .  S
O140        C150   1.284       .  A
O141       Cu146   1.930       .  S
O141        C150   1.270       .  A
O142       Cu146   1.942       .  S
O142        C149   1.271       .  A
O143       Cu146   1.947       .  S
O143        C148   1.272       .  A
O144       Cu146   1.944       .  S
O144        C147   1.273       .  A
Cu145      Cu146   2.358       .  S
C147        C162   1.487       .  S
C148        C171   1.490       .  S
C149        C182   1.498       .  S
C150        C155   1.485       .  S
C151        C347   1.462       .  S
C151        C152   1.418       .  A
C151        C156   1.414       .  A
C152        C849   1.407   1_545  A
C152        H157   1.083       .  S
C153        C205   1.496       .  S
C153        C848   1.407       .  A
C153        C850   1.399       .  A
C154        C155   1.397       .  A
C154        C849   1.399   1_545  A
C154        H854   1.085   1_545  S
C155        C156   1.396       .  A
C156        H159   1.084       .  S
H158        C850   1.085       .  S
C160        C161   1.417       .  A
C160        C165   1.424       .  A
C161        C162   1.397       .  A
C161        H166   1.083       .  S
C162        C163   1.396       .  A
C163        C860   1.402       .  A
C163        H863   1.086   1_545  S
C164        C214   1.508       .  S
C164        C859   1.402       .  A
C164        C861   1.410       .  A
C165        C860   1.410       .  A
C165        H168   1.083       .  S
H167        C859   1.086       .  S
C169        C170   1.415       .  A
C169        C174   1.417       .  A
C170        C171   1.398       .  A
C170        H175   1.084       .  S
C171        C172   1.398       .  A
C172        C869   1.403   1_545  A
C172        H872   1.084   1_545  S
C173        C221   1.498       .  S
C173        C868   1.403       .  A
C173        C870   1.406       .  A
C174        C869   1.406   1_545  A
C174        H177   1.083       .  S
H176        C868   1.084       .  S
C178        C179   1.418       .  A
C178        C183   1.419       .  A
C179        C876   1.403   1_545  A
C179        H184   1.083       .  S
C180        C232   1.501       .  S
C180        C875   1.403       .  A
C180        C877   1.403       .  A
C181        C182   1.400       .  A
C181        C876   1.403   1_545  A
C181        H881   1.084   1_545  S
C182        C183   1.402       .  A
C183        H186   1.083       .  S
H185        C877   1.084       .  S
O187       Cu195   2.092       .  S
O187        C197   1.286       .  A
O188       Cu195   2.072       .  S
O188        C198   1.284       .  A
O189       Cu195   2.079       .  S
O189        C199   1.285       .  A
O190       Cu195   2.073       .  S
O190        C200   1.284       .  A
O191       Cu196   1.943       .  S
O191        C200   1.272       .  A
O192       Cu196   1.947       .  S
O192        C199   1.272       .  A
O193       Cu196   1.943       .  S
O193        C198   1.272       .  A
O194       Cu196   1.952       .  S
O194        C197   1.273       .  A
Cu195      Cu196   2.356       .  S
C197        C203   1.500       .  S
C198        C230   1.487       .  S
C199        C223   1.491       .  S
C200        C212   1.489       .  S
C201        C202   1.420       .  A
C201        C206   1.414       .  A
C202        C203   1.405       .  A
C202        H207   1.083       .  S
C203        C204   1.401       .  A
C204        C205   1.404       .  A
C204        H208   1.084       .  S
C205        C206   1.400       .  A
C206        H209   1.083       .  S
C210        C237   1.468       .  S
C210        C211   1.416       .  A
C210        C215   1.423       .  A
C211        C212   1.395       .  A
C211        H216   1.084       .  S
C212        C213   1.395       .  A
C213        C214   1.404       .  A
C213        H217   1.084       .  S
C214        C215   1.410       .  A
C215        H218   1.083       .  S
C219        C220   1.417       .  A
C219        C224   1.417       .  A
C220        C221   1.406       .  A
C220        H225   1.083       .  S
C221        C222   1.402       .  A
C222        C223   1.400       .  A
C222        H226   1.085       .  S
C223        C224   1.402       .  A
C224        H227   1.083       .  S
C228        C229   1.414       .  A
C228        C233   1.419       .  A
C229        C230   1.397       .  A
C229        H234   1.084       .  S
C230        C231   1.397       .  A
C231        C232   1.402       .  A
C231        H235   1.085       .  S
C232        C233   1.409       .  A
C233        H236   1.082       .  S
C237        N238   1.356       .  A
C237        N242   1.361       .  A
N238        C239   1.357       .  A
C239        N240   1.360       .  A
N240        C241   1.358       .  A
C241        N242   1.361       .  A
C241        C316   1.475       .  S
O243       Cu251   1.942       .  S
O243        C253   1.271       .  A
O244       Cu251   1.944       .  S
O244        C254   1.272       .  A
O245       Cu251   1.931       .  S
O245        C255   1.271       .  A
O246       Cu251   1.942       .  S
O246        C256   1.271       .  A
O247       Cu252   2.092       .  S
O247        C256   1.286       .  A
O248       Cu252   2.067       .  S
O248        C255   1.283       .  A
O249       Cu252   2.071       .  S
O249        C254   1.284       .  A
O250       Cu252   2.078       .  S
O250        C253   1.285       .  A
Cu251      Cu252   2.357       .  S
C253        C279   1.489       .  S
C254        C270   1.488       .  S
C255        C259   1.482       .  S
C256        C288   1.497       .  S
C257        C343   1.456       .  S
C257        C258   1.413       .  A
C257        C262   1.414       .  A
C258        C259   1.396       .  A
C258        H263   1.083       .  S
C259        C260   1.397       .  A
C260       C1653   1.399   1_455  A
C260       H1656   1.085   1_455  S
C261        C309   1.491       .  S
C261       C1652   1.399       .  A
C261       C1654   1.402       .  A
C262       C1653   1.402   1_455  A
C262        H265   1.083       .  S
H264       C1652   1.085       .  S
C266        C267   1.429       .  A
C266        C271   1.414       .  A
C267       C1660   1.415   1_455  A
C267        H272   1.083       .  S
C268        C320   1.518       .  S
C268       C1659   1.415       .  A
C268       C1661   1.406       .  A
C269        C270   1.395       .  A
C269       C1660   1.406   1_455  A
C269       H1665   1.084   1_455  S
C270        C271   1.393       .  A
C271        H274   1.084       .  S
H273       C1661   1.084       .  S
C275        C276   1.423       .  A
C275        C280   1.415       .  A
C276       C1669   1.411       .  A
C276        H281   1.083       .  S
C277        C329   1.506       .  S
C277       C1668   1.411       .  A
C277       C1670   1.402       .  A
C278        C279   1.399       .  A
C278       C1669   1.402       .  A
C278       H1674   1.085   1_455  S
C279        C280   1.399       .  A
C280        H283   1.084       .  S
H282       C1670   1.085       .  S
C284        C285   1.414       .  A
C284        C289   1.420       .  A
C285       C1678   1.400   1_455  A
C285        H290   1.083       .  S
C286        C338   1.495       .  S
C286       C1677   1.400       .  A
C286       C1679   1.402       .  A
C287        C288   1.401       .  A
C287       C1678   1.402   1_455  A
C287       H1683   1.084   1_455  S
C288        C289   1.404       .  A
C289        H292   1.083       .  S
H291       C1679   1.084       .  S
O293       Cu301   1.936       .  S
O293        C303   1.271       .  A
O294       Cu301   1.929       .  S
O294        C304   1.270       .  A
O295       Cu301   1.949       .  S
O295        C305   1.271       .  A
O296       Cu301   1.942       .  S
O296        C306   1.272       .  A
O297       Cu302   2.080       .  S
O297        C306   1.284       .  A
O298       Cu302   2.077       .  S
O298        C305   1.286       .  A
O299       Cu302   2.070       .  S
O299        C304   1.284       .  A
O300       Cu302   2.092       .  S
O300        C303   1.286       .  A
Cu301      Cu302   2.357       .  S
C303        C311   1.495       .  S
C304        C336   1.485       .  S
C305        C327   1.491       .  S
C306        C318   1.489       .  S
C307        C308   1.412       .  A
C307        C312   1.419       .  A
C308        C309   1.398       .  A
C308        H313   1.083       .  S
C309        C310   1.401       .  A
C310        C311   1.400       .  A
C310        H314   1.085       .  S
C311        C312   1.403       .  A
C312        H315   1.083       .  S
C316        C317   1.417       .  A
C316        C321   1.429       .  A
C317        C318   1.396       .  A
C317        H322   1.084       .  S
C318        C319   1.397       .  A
C319        C320   1.404       .  A
C319        H323   1.085       .  S
C320        C321   1.415       .  A
C321        H324   1.083       .  S
C325        C326   1.413       .  A
C325        C330   1.421       .  A
C326        C327   1.395       .  A
C326        H331   1.084       .  S
C327        C328   1.399       .  A
C328        C329   1.408       .  A
C328        H332   1.084       .  S
C329        C330   1.410       .  A
C330        H333   1.083       .  S
C334        C335   1.414       .  A
C334        C339   1.416       .  A
C335        C336   1.397       .  A
C335        H340   1.084       .  S
C336        C337   1.397       .  A
C337        C338   1.399       .  A
C337        H341   1.085       .  S
C338        C339   1.405       .  A
C339        H342   1.083       .  S
C343        N344   1.359       .  A
C343        N348   1.358       .  A
N344        C345   1.354       .  A
C345        N346   1.355       .  A
N346        C347   1.357       .  A
C347        N348   1.357       .  A
C349        N350   1.354       .  A
C349        N354   1.355       .  A
C349        C576   1.466       .  S
N350        C351   1.359       .  A
C351        N352   1.358       .  A
C351        C476   1.455       .  S
N352        C353   1.356       .  A
C353        N354   1.357       .  A
C353        C682   1.461       .  S
C355        N356   1.360       .  A
C355        N360   1.360       .  A
C355        C549   1.466       .  S
N356        C357   1.359       .  A
C357        N358   1.360       .  A
C357        C408   1.471       .  S
N358        C359   1.359       .  A
C359        N360   1.356       .  A
C359        C614   1.473       .  S
C361        N362   1.357       .  A
C361        N366   1.360       .  A
C361        C673   1.468       .  S
N362        C363   1.356       .  A
C363        N364   1.357       .  A
C363        C467   1.470       .  S
N364        C365   1.361       .  A
C365        N366   1.361       .  A
C365        C526   1.467       .  S
C367        N368   1.360       .  A
C367        N372   1.363       .  A
C367        C449   1.466       .  S
N368        C369   1.358       .  A
C369        N370   1.357       .  A
C369        C517   1.466       .  S
N370        C371   1.356       .  A
C371        N372   1.358       .  A
C371        C623   1.472       .  S
C373        N374   1.358       .  A
C373        N378   1.360       .  A
C373        C567   1.469       .  S
N374        C375   1.357       .  A
C375        N376   1.356       .  A
C375        C458   1.469       .  S
N376        C377   1.359       .  A
C377        N378   1.361       .  A
C377        C632   1.465       .  S
C379        N380   1.357       .  A
C379        N384   1.358       .  A
C379        C655   1.459       .  S
N380        C381   1.358       .  A
C381        N382   1.360       .  A
C381        C417   1.466       .  S
N382        C383   1.358       .  A
C383        N384   1.354       .  A
C383        C508   1.468       .  S
O385       Cu393   2.083       .  S
O385        C395   1.284       .  A
O386       Cu393   2.064       .  S
O386        C396   1.282       .  A
O387       Cu393   2.070       .  S
O387        C397   1.285       .  A
O388       Cu393   2.096       .  S
O388        C398   1.287       .  A
O389       Cu394   1.941       .  S
O389        C398   1.271       .  A
O390       Cu394   1.933       .  S
O390        C397   1.270       .  A
O391       Cu394   1.939       .  S
O391        C396   1.272       .  A
O392       Cu394   1.948       .  S
O392        C395   1.274       .  A
Cu393      Cu394   2.358       .  S
C395        C430   1.496       .  S
C396        C401   1.482       .  S
C397        C419   1.485       .  S
C398        C412   1.496       .  S
C399        C693   1.465       .  S
C399        C400   1.414       .  A
C399        C404   1.421       .  A
C400        C401   1.396       .  A
C400        H405   1.084       .  S
C401        C402   1.395       .  A
C403        C453   1.502       .  S
C404        H407   1.082       .  S
C408        C409   1.422       .  A
C408        C413   1.418       .  A
C409        H414   1.083       .  S
C410        C460   1.509   1_554  S
C411        C412   1.401       .  A
C412        C413   1.400       .  A
C413        H416   1.083       .  S
C417        C418   1.412       .  A
C417        C422   1.422       .  A
C418        C419   1.393       .  A
C418        H423   1.084       .  S
C419        C420   1.397       .  A
C421        C471   1.505       .  S
C422        H425   1.083       .  S
C426        C587   1.463       .  S
C426        C427   1.414       .  A
C426        C431   1.421       .  A
C427        H432   1.083       .  S
C428        C478   1.495       .  S
C429        C430   1.396       .  A
C430        C431   1.404       .  A
C431        H434   1.083       .  S
O435       Cu443   1.949       .  S
O435        C445   1.273       .  A
O436       Cu443   1.937       .  S
O436        C446   1.272       .  A
O437       Cu443   1.935       .  S
O437        C447   1.271       .  A
O438       Cu443   1.942       .  S
O438        C448   1.271       .  A
O439       Cu444   2.092       .  S
O439        C448   1.286       .  A
O440       Cu444   2.065       .  S
O440        C447   1.284       .  A
O441       Cu444   2.062       .  S
O441        C446   1.282       .  A
O442       Cu444   2.087       .  S
O442        C445   1.285       .  A
Cu443      Cu444   2.359       .  S
C445        C451   1.497       .  S
C446        C480   1.479       .  S
C447        C462   1.484       .  S
C448        C469   1.495       .  S
C449        C450   1.419       .  A
C449        C454   1.417       .  A
C450        C451   1.401       .  A
C450        H455   1.083       .  S
C451        C452   1.398       .  A
C452        C453   1.405       .  A
C452        H456   1.083       .  S
C453        C454   1.403       .  A
C454        H457   1.083       .  S
C458        C459   1.425       .  A
C458        C463   1.412       .  A
C459        C460   1.414       .  A
C459        H464   1.083       .  S
C460        C461   1.402       .  A
C461        C462   1.396       .  A
C461        H465   1.084       .  S
C462        C463   1.392       .  A
C463        H466   1.084       .  S
C467        C468   1.419       .  A
C467        C472   1.421       .  A
C468        C469   1.402       .  A
C468        H473   1.083       .  S
C469        C470   1.400       .  A
C470        C471   1.403       .  A
C470        H474   1.085       .  S
C471        C472   1.407       .  A
C472        H475   1.083       .  S
C476        C477   1.415       .  A
C476        C481   1.412       .  A
C477        C478   1.404       .  A
C477        H482   1.083       .  S
C478        C479   1.401       .  A
C479        C480   1.395       .  A
C479        H483   1.086       .  S
C480        C481   1.394       .  A
C481        H484   1.084       .  S
O485       Cu493   2.074       .  S
O485        C495   1.283       .  A
O486       Cu493   2.074       .  S
O486        C496   1.284       .  A
O487       Cu493   2.094       .  S
O487        C497   1.287       .  A
O488       Cu493   2.072       .  S
O488        C498   1.284       .  A
O489       Cu494   1.930       .  S
O489        C498   1.270       .  A
O490       Cu494   1.942       .  S
O490        C497   1.271       .  A
O491       Cu494   1.947       .  S
O491        C496   1.272       .  A
O492       Cu494   1.944       .  S
O492        C495   1.273       .  A
Cu493      Cu494   2.358       .  S
C495        C510   1.487       .  S
C496        C519   1.490       .  S
C497        C530   1.498       .  S
C498        C503   1.485       .  S
C499        C695   1.462       .  S
C499        C500   1.418       .  A
C499        C504   1.414       .  A
C500       C1197   1.407   1_545  A
C500        H505   1.083       .  S
C501        C553   1.496       .  S
C501       C1196   1.407       .  A
C501       C1198   1.399       .  A
C502       C1197   1.399   1_545  A
C502        C503   1.397       .  A
C502       H1202   1.085   1_545  S
C503        C504   1.396       .  A
C504        H507   1.084       .  S
H506       C1198   1.085       .  S
C508        C509   1.417       .  A
C508        C513   1.424       .  A
C509        C510   1.397       .  A
C509        H514   1.083       .  S
C510        C511   1.396       .  A
C511       C1208   1.402       .  A
C511       H1211   1.086   1_545  S
C512        C562   1.508       .  S
C512       C1207   1.402       .  A
C512       C1209   1.410       .  A
C513       C1208   1.410       .  A
C513        H516   1.083       .  S
H515       C1207   1.086       .  S
C517        C518   1.415       .  A
C517        C522   1.417       .  A
C518        C519   1.398       .  A
C518        H523   1.084       .  S
C519        C520   1.398       .  A
C520       C1217   1.403   1_545  A
C520       H1220   1.084   1_545  S
C521        C569   1.498       .  S
C521       C1216   1.403       .  A
C521       C1218   1.406       .  A
C522       C1217   1.406   1_545  A
C522        H525   1.083       .  S
H524       C1216   1.084       .  S
C526        C527   1.418       .  A
C526        C531   1.419       .  A
C527       C1224   1.403   1_545  A
C527        H532   1.083       .  S
C528        C580   1.501       .  S
C528       C1223   1.403       .  A
C528       C1225   1.403       .  A
C529       C1224   1.403   1_545  A
C529        C530   1.400       .  A
C529       H1229   1.084   1_545  S
C530        C531   1.402       .  A
C531        H534   1.083       .  S
H533       C1225   1.084       .  S
O535       Cu543   2.092       .  S
O535        C545   1.286       .  A
O536       Cu543   2.072       .  S
O536        C546   1.284       .  A
O537       Cu543   2.079       .  S
O537        C547   1.285       .  A
O538       Cu543   2.073       .  S
O538        C548   1.284       .  A
O539       Cu544   1.943       .  S
O539        C548   1.272       .  A
O540       Cu544   1.947       .  S
O540        C547   1.272       .  A
O541       Cu544   1.943       .  S
O541        C546   1.272       .  A
O542       Cu544   1.952       .  S
O542        C545   1.273       .  A
Cu543      Cu544   2.356       .  S
C545        C551   1.500       .  S
C546        C578   1.487       .  S
C547        C571   1.491       .  S
C548        C560   1.489       .  S
C549        C550   1.420       .  A
C549        C554   1.414       .  A
C550        C551   1.405       .  A
C550        H555   1.083       .  S
C551        C552   1.401       .  A
C552        C553   1.404       .  A
C552        H556   1.084       .  S
C553        C554   1.400       .  A
C554        H557   1.083       .  S
C558        C585   1.468       .  S
C558        C559   1.416       .  A
C558        C563   1.423       .  A
C559        C560   1.395       .  A
C559        H564   1.084       .  S
C560        C561   1.395       .  A
C561        C562   1.404       .  A
C561        H565   1.084       .  S
C562        C563   1.410       .  A
C563        H566   1.083       .  S
C567        C568   1.417       .  A
C567        C572   1.417       .  A
C568        C569   1.406       .  A
C568        H573   1.083       .  S
C569        C570   1.402       .  A
C570        C571   1.400       .  A
C570        H574   1.085       .  S
C571        C572   1.402       .  A
C572        H575   1.083       .  S
C576        C577   1.414       .  A
C576        C581   1.419       .  A
C577        C578   1.397       .  A
C577        H582   1.084       .  S
C578        C579   1.397       .  A
C579        C580   1.402       .  A
C579        H583   1.085       .  S
C580        C581   1.409       .  A
C581        H584   1.082       .  S
C585        N586   1.356       .  A
C585        N590   1.361       .  A
N586        C587   1.357       .  A
C587        N588   1.360       .  A
N588        C589   1.358       .  A
C589        N590   1.361       .  A
C589        C664   1.475       .  S
O591       Cu599   1.942       .  S
O591        C601   1.271       .  A
O592       Cu599   1.944       .  S
O592        C602   1.272       .  A
O593       Cu599   1.931       .  S
O593        C603   1.271       .  A
O594       Cu599   1.942       .  S
O594        C604   1.271       .  A
O595       Cu600   2.092       .  S
O595        C604   1.286       .  A
O596       Cu600   2.067       .  S
O596        C603   1.283       .  A
O597       Cu600   2.071       .  S
O597        C602   1.284       .  A
O598       Cu600   2.078       .  S
O598        C601   1.285       .  A
Cu599      Cu600   2.357       .  S
C601        C627   1.489       .  S
C602        C618   1.488       .  S
C603        C607   1.482       .  S
C604        C636   1.497       .  S
C605        C691   1.456       .  S
C605        C606   1.413       .  A
C605        C610   1.414       .  A
C606        C607   1.396       .  A
C606        H611   1.083       .  S
C607        C608   1.397       .  A
C608       C2001   1.399   1_455  A
C608       H2004   1.085   1_455  S
C609        C657   1.491       .  S
C609       C2000   1.399       .  A
C609       C2002   1.402       .  A
C610       C2001   1.402   1_455  A
C610        H613   1.083       .  S
H612       C2000   1.085       .  S
C614        C615   1.429       .  A
C614        C619   1.414       .  A
C615       C2008   1.415   1_455  A
C615        H620   1.083       .  S
C616        C668   1.518       .  S
C616       C2007   1.415       .  A
C616       C2009   1.406       .  A
C617       C2008   1.406   1_455  A
C617        C618   1.395       .  A
C617       H2013   1.084   1_455  S
C618        C619   1.393       .  A
C619        H622   1.084       .  S
H621       C2009   1.083       .  S
C623        C624   1.423       .  A
C623        C628   1.415       .  A
C624       C2017   1.411       .  A
C624        H629   1.083       .  S
C625        C677   1.506       .  S
C625       C2016   1.411       .  A
C625       C2018   1.402       .  A
C626       C2017   1.402       .  A
C626        C627   1.399       .  A
C626       H2022   1.085   1_455  S
C627        C628   1.399       .  A
C628        H631   1.084       .  S
H630       C2018   1.085       .  S
C632        C633   1.414       .  A
C632        C637   1.420       .  A
C633       C2026   1.400   1_455  A
C633        H638   1.083       .  S
C634        C686   1.495       .  S
C634       C2025   1.400       .  A
C634       C2027   1.402       .  A
C635       C2026   1.402   1_455  A
C635        C636   1.401       .  A
C635       H2031   1.084   1_455  S
C636        C637   1.404       .  A
C637        H640   1.083       .  S
H639       C2027   1.084       .  S
O641       Cu649   1.936       .  S
O641        C651   1.271       .  A
O642       Cu649   1.929       .  S
O642        C652   1.270       .  A
O643       Cu649   1.949       .  S
O643        C653   1.271       .  A
O644       Cu649   1.942       .  S
O644        C654   1.272       .  A
O645       Cu650   2.080       .  S
O645        C654   1.284       .  A
O646       Cu650   2.077       .  S
O646        C653   1.286       .  A
O647       Cu650   2.070       .  S
O647        C652   1.284       .  A
O648       Cu650   2.092       .  S
O648        C651   1.286       .  A
Cu649      Cu650   2.357       .  S
C651        C659   1.495       .  S
C652        C684   1.485       .  S
C653        C675   1.491       .  S
C654        C666   1.489       .  S
C655        C656   1.412       .  A
C655        C660   1.419       .  A
C656        C657   1.398       .  A
C656        H661   1.083       .  S
C657        C658   1.401       .  A
C658        C659   1.400       .  A
C658        H662   1.085       .  S
C659        C660   1.403       .  A
C660        H663   1.083       .  S
C664        C665   1.417       .  A
C664        C669   1.429       .  A
C665        C666   1.396       .  A
C665        H670   1.084       .  S
C666        C667   1.397       .  A
C667        C668   1.404       .  A
C667        H671   1.085       .  S
C668        C669   1.415       .  A
C669        H672   1.083       .  S
C673        C674   1.413       .  A
C673        C678   1.421       .  A
C674        C675   1.395       .  A
C674        H679   1.084       .  S
C675        C676   1.399       .  A
C676        C677   1.408       .  A
C676        H680   1.084       .  S
C677        C678   1.410       .  A
C678        H681   1.083       .  S
C682        C683   1.414       .  A
C682        C687   1.416       .  A
C683        C684   1.397       .  A
C683        H688   1.084       .  S
C684        C685   1.397       .  A
C685        C686   1.399       .  A
C685        H689   1.085       .  S
C686        C687   1.405       .  A
C687        H690   1.083       .  S
C691        N692   1.359       .  A
C691        N696   1.358       .  A
N692        C693   1.354       .  A
C693        N694   1.355       .  A
N694        C695   1.357       .  A
C695        N696   1.357       .  A
C697        N698   1.354       .  A
C697        N702   1.355       .  A
C697        C924   1.466       .  S
N698        C699   1.359       .  A
C699        N700   1.358       .  A
C699        C824   1.455       .  S
N700        C701   1.356       .  A
C701        N702   1.357       .  A
C701       C1030   1.461       .  S
C703        N704   1.360       .  A
C703        N708   1.360       .  A
C703        C897   1.466       .  S
N704        C705   1.359       .  A
C705        N706   1.360       .  A
C705        C756   1.471       .  S
N706        C707   1.359       .  A
C707        N708   1.356       .  A
C707        C962   1.473       .  S
C709        N710   1.357       .  A
C709        N714   1.360       .  A
C709       C1021   1.468       .  S
N710        C711   1.356       .  A
C711        N712   1.357       .  A
C711        C815   1.470       .  S
N712        C713   1.361       .  A
C713        N714   1.361       .  A
C713        C874   1.467       .  S
C715        N716   1.360       .  A
C715        N720   1.363       .  A
C715        C797   1.466       .  S
N716        C717   1.358       .  A
C717        N718   1.357       .  A
C717        C865   1.466       .  S
N718        C719   1.356       .  A
C719        N720   1.358       .  A
C719        C971   1.472       .  S
C721        N722   1.358       .  A
C721        N726   1.360       .  A
C721        C915   1.469       .  S
N722        C723   1.357       .  A
C723        N724   1.356       .  A
C723        C806   1.469       .  S
N724        C725   1.359       .  A
C725        N726   1.361       .  A
C725        C980   1.465       .  S
C727        N728   1.357       .  A
C727        N732   1.358       .  A
C727       C1003   1.459       .  S
N728        C729   1.358       .  A
C729        N730   1.360       .  A
C729        C765   1.466       .  S
N730        C731   1.358       .  A
C731        N732   1.354       .  A
C731        C856   1.468       .  S
O733       Cu741   2.083       .  S
O733        C743   1.284       .  A
O734       Cu741   2.064       .  S
O734        C744   1.282       .  A
O735       Cu741   2.070       .  S
O735        C745   1.285       .  A
O736       Cu741   2.096       .  S
O736        C746   1.287       .  A
O737       Cu742   1.941       .  S
O737        C746   1.271       .  A
O738       Cu742   1.933       .  S
O738        C745   1.270       .  A
O739       Cu742   1.939       .  S
O739        C744   1.272       .  A
O740       Cu742   1.948       .  S
O740        C743   1.274       .  A
Cu741      Cu742   2.358       .  S
C743        C778   1.496       .  S
C744        C749   1.482       .  S
C745        C767   1.485       .  S
C746        C760   1.496       .  S
C747       C1041   1.465       .  S
C747        C748   1.414       .  A
C747        C752   1.421       .  A
C748        C749   1.396       .  A
C748        H753   1.084       .  S
C749        C750   1.395       .  A
C750       C1099   1.400   1_554  A
C750       H1102   1.086   1_554  S
C751        C801   1.502       .  S
C751       C1098   1.400       .  A
C751       C1100   1.410       .  A
C752       C1099   1.410   1_554  A
C752        H755   1.082       .  S
H754       C1098   1.086       .  S
C756        C757   1.422       .  A
C756        C761   1.418       .  A
C757       C1106   1.408       .  A
C757        H762   1.083       .  S
C758        C808   1.509       .  S
C758       C1105   1.408       .  A
C758       C1107   1.406       .  A
C759       C1106   1.406       .  A
C759        C760   1.401       .  A
C759       H1111   1.085   1_554  S
C760        C761   1.400       .  A
C761        H764   1.083       .  S
H763       C1107   1.085       .  S
C765        C766   1.412       .  A
C765        C770   1.422       .  A
C766        C767   1.393       .  A
C766        H771   1.084       .  S
C767        C768   1.397       .  A
C768       C1117   1.403   1_554  A
C768       H1120   1.084   1_554  S
C769        C819   1.505       .  S
C769       C1116   1.403       .  A
C769       C1118   1.411       .  A
C770       C1117   1.411   1_554  A
C770        H773   1.083       .  S
H772       C1116   1.084       .  S
C774        C935   1.463       .  S
C774        C775   1.414       .  A
C774        C779   1.421       .  A
C775       C1124   1.399   1_554  A
C775        H780   1.083       .  S
C776        C826   1.495       .  S
C776       C1123   1.399       .  A
C776       C1125   1.400       .  A
C777       C1124   1.400   1_554  A
C777        C778   1.396       .  A
C777       H1129   1.083   1_554  S
C778        C779   1.404       .  A
C779        H782   1.083       .  S
H781       C1125   1.083       .  S
O783       Cu791   1.949       .  S
O783        C793   1.273       .  A
O784       Cu791   1.937       .  S
O784        C794   1.272       .  A
O785       Cu791   1.935       .  S
O785        C795   1.271       .  A
O786       Cu791   1.942       .  S
O786        C796   1.271       .  A
O787       Cu792   2.092       .  S
O787        C796   1.286       .  A
O788       Cu792   2.065       .  S
O788        C795   1.284       .  A
O789       Cu792   2.062       .  S
O789        C794   1.282       .  A
O790       Cu792   2.087       .  S
O790        C793   1.285       .  A
Cu791      Cu792   2.359       .  S
C793        C799   1.497       .  S
C794        C828   1.479       .  S
C795        C810   1.484       .  S
C796        C817   1.495       .  S
C797        C798   1.419       .  A
C797        C802   1.417       .  A
C798        C799   1.401       .  A
C798        H803   1.083       .  S
C799        C800   1.398       .  A
C800        C801   1.405       .  A
C800        H804   1.083       .  S
C801        C802   1.403       .  A
C802        H805   1.083       .  S
C806        C807   1.425       .  A
C806        C811   1.412       .  A
C807        C808   1.414       .  A
C807        H812   1.083       .  S
C808        C809   1.402       .  A
C809        C810   1.396       .  A
C809        H813   1.084       .  S
C810        C811   1.392       .  A
C811        H814   1.084       .  S
C815        C816   1.419       .  A
C815        C820   1.421       .  A
C816        C817   1.402       .  A
C816        H821   1.083       .  S
C817        C818   1.400       .  A
C818        C819   1.403       .  A
C818        H822   1.085       .  S
C819        C820   1.407       .  A
C820        H823   1.083       .  S
C824        C825   1.415       .  A
C824        C829   1.412       .  A
C825        C826   1.404       .  A
C825        H830   1.083       .  S
C826        C827   1.401       .  A
C827        C828   1.395       .  A
C827        H831   1.086       .  S
C828        C829   1.394       .  A
C829        H832   1.084       .  S
O833       Cu841   2.074       .  S
O833        C843   1.283       .  A
O834       Cu841   2.074       .  S
O834        C844   1.284       .  A
O835       Cu841   2.094       .  S
O835        C845   1.287       .  A
O836       Cu841   2.072       .  S
O836        C846   1.284       .  A
O837       Cu842   1.930       .  S
O837        C846   1.270       .  A
O838       Cu842   1.942       .  S
O838        C845   1.271       .  A
O839       Cu842   1.947       .  S
O839        C844   1.272       .  A
O840       Cu842   1.944       .  S
O840        C843   1.273       .  A
Cu841      Cu842   2.358       .  S
C843        C858   1.487       .  S
C844        C867   1.490       .  S
C845        C878   1.498       .  S
C846        C851   1.485       .  S
C847       C1043   1.462       .  S
C847        C848   1.418       .  A
C847        C852   1.414       .  A
C848        H853   1.083       .  S
C849        C901   1.496       .  S
C850        C851   1.397       .  A
C851        C852   1.396       .  A
C852        H855   1.084       .  S
C856        C857   1.417       .  A
C856        C861   1.424       .  A
C857        C858   1.397       .  A
C857        H862   1.083       .  S
C858        C859   1.396       .  A
C860        C910   1.508   1_545  S
C861        H864   1.083       .  S
C865        C866   1.415       .  A
C865        C870   1.417       .  A
C866        C867   1.398       .  A
C866        H871   1.084       .  S
C867        C868   1.398       .  A
C869        C917   1.498       .  S
C870        H873   1.083       .  S
C874        C875   1.418       .  A
C874        C879   1.419       .  A
C875        H880   1.083       .  S
C876        C928   1.501       .  S
C877        C878   1.400       .  A
C878        C879   1.402       .  A
C879        H882   1.083       .  S
O883       Cu891   2.092       .  S
O883        C893   1.286       .  A
O884       Cu891   2.072       .  S
O884        C894   1.284       .  A
O885       Cu891   2.079       .  S
O885        C895   1.285       .  A
O886       Cu891   2.073       .  S
O886        C896   1.284       .  A
O887       Cu892   1.943       .  S
O887        C896   1.272       .  A
O888       Cu892   1.947       .  S
O888        C895   1.272       .  A
O889       Cu892   1.943       .  S
O889        C894   1.272       .  A
O890       Cu892   1.952       .  S
O890        C893   1.273       .  A
Cu891      Cu892   2.356       .  S
C893        C899   1.500       .  S
C894        C926   1.487       .  S
C895        C919   1.491       .  S
C896        C908   1.489       .  S
C897        C898   1.420       .  A
C897        C902   1.414       .  A
C898        C899   1.405       .  A
C898        H903   1.083       .  S
C899        C900   1.401       .  A
C900        C901   1.404       .  A
C900        H904   1.084       .  S
C901        C902   1.400       .  A
C902        H905   1.083       .  S
C906        C933   1.468       .  S
C906        C907   1.416       .  A
C906        C911   1.423       .  A
C907        C908   1.395       .  A
C907        H912   1.084       .  S
C908        C909   1.395       .  A
C909        C910   1.404       .  A
C909        H913   1.084       .  S
C910        C911   1.410       .  A
C911        H914   1.083       .  S
C915        C916   1.417       .  A
C915        C920   1.417       .  A
C916        C917   1.406       .  A
C916        H921   1.083       .  S
C917        C918   1.402       .  A
C918        C919   1.400       .  A
C918        H922   1.085       .  S
C919        C920   1.402       .  A
C920        H923   1.083       .  S
C924        C925   1.414       .  A
C924        C929   1.419       .  A
C925        C926   1.397       .  A
C925        H930   1.084       .  S
C926        C927   1.397       .  A
C927        C928   1.402       .  A
C927        H931   1.085       .  S
C928        C929   1.409       .  A
C929        H932   1.082       .  S
C933        N934   1.356       .  A
C933        N938   1.361       .  A
N934        C935   1.357       .  A
C935        N936   1.360       .  A
N936        C937   1.358       .  A
C937        N938   1.361       .  A
C937       C1012   1.475       .  S
O939       Cu947   1.942       .  S
O939        C949   1.271       .  A
O940       Cu947   1.944       .  S
O940        C950   1.272       .  A
O941       Cu947   1.931       .  S
O941        C951   1.271       .  A
O942       Cu947   1.942       .  S
O942        C952   1.271       .  A
O943       Cu948   2.092       .  S
O943        C952   1.286       .  A
O944       Cu948   2.067       .  S
O944        C951   1.283       .  A
O945       Cu948   2.071       .  S
O945        C950   1.284       .  A
O946       Cu948   2.078       .  S
O946        C949   1.285       .  A
Cu947      Cu948   2.357       .  S
C949        C975   1.489       .  S
C950        C966   1.488       .  S
C951        C955   1.482       .  S
C952        C984   1.497       .  S
C953       C1039   1.456       .  S
C953        C954   1.413       .  A
C953        C958   1.414       .  A
C954        C955   1.396       .  A
C954        H959   1.083       .  S
C955        C956   1.397       .  A
C956       C2349   1.399   1_455  A
C956       H2352   1.085   1_455  S
C957       C1005   1.491       .  S
C957       C2348   1.399       .  A
C957       C2350   1.402       .  A
C958       C2349   1.402   1_455  A
C958        H961   1.083       .  S
H960       C2348   1.085       .  S
C962        C963   1.429       .  A
C962        C967   1.414       .  A
C963       C2356   1.415   1_455  A
C963        H968   1.083       .  S
C964       C1016   1.518       .  S
C964       C2355   1.415       .  A
C964       C2357   1.406       .  A
C965       C2356   1.406   1_455  A
C965        C966   1.395       .  A
C965       H2361   1.084   1_455  S
C966        C967   1.393       .  A
C967        H970   1.084       .  S
H969       C2357   1.084       .  S
C971        C972   1.423       .  A
C971        C976   1.415       .  A
C972       C2365   1.411       .  A
C972        H977   1.083       .  S
C973       C1025   1.506       .  S
C973       C2364   1.411       .  A
C973       C2366   1.402       .  A
C974       C2365   1.402       .  A
C974        C975   1.399       .  A
C974       H2370   1.085   1_455  S
C975        C976   1.399       .  A
C976        H979   1.084       .  S
H978       C2366   1.085       .  S
C980        C981   1.414       .  A
C980        C985   1.420       .  A
C981       C2374   1.400   1_455  A
C981        H986   1.083       .  S
C982       C1034   1.495       .  S
C982       C2373   1.400       .  A
C982       C2375   1.402       .  A
C983       C2374   1.402   1_455  A
C983        C984   1.401       .  A
C983       H2379   1.084   1_455  S
C984        C985   1.404       .  A
C985        H988   1.083       .  S
H987       C2375   1.084       .  S
O989       Cu997   1.936       .  S
O989        C999   1.271       .  A
O990       Cu997   1.929       .  S
O990       C1000   1.270       .  A
O991       Cu997   1.949       .  S
O991       C1001   1.271       .  A
O992       Cu997   1.942       .  S
O992       C1002   1.272       .  A
O993       Cu998   2.080       .  S
O993       C1002   1.284       .  A
O994       Cu998   2.077       .  S
O994       C1001   1.286       .  A
O995       Cu998   2.070       .  S
O995       C1000   1.284       .  A
O996       Cu998   2.092       .  S
O996        C999   1.286       .  A
Cu997      Cu998   2.357       .  S
C999       C1007   1.495       .  S
C1000      C1032   1.485       .  S
C1001      C1023   1.491       .  S
C1002      C1014   1.489       .  S
C1003      C1004   1.412       .  A
C1003      C1008   1.419       .  A
C1004      C1005   1.398       .  A
C1004      H1009   1.083       .  S
C1005      C1006   1.401       .  A
C1006      C1007   1.400       .  A
C1006      H1010   1.085       .  S
C1007      C1008   1.403       .  A
C1008      H1011   1.083       .  S
C1012      C1013   1.417       .  A
C1012      C1017   1.429       .  A
C1013      C1014   1.396       .  A
C1013      H1018   1.084       .  S
C1014      C1015   1.397       .  A
C1015      C1016   1.404       .  A
C1015      H1019   1.085       .  S
C1016      C1017   1.415       .  A
C1017      H1020   1.083       .  S
C1021      C1022   1.413       .  A
C1021      C1026   1.421       .  A
C1022      C1023   1.395       .  A
C1022      H1027   1.084       .  S
C1023      C1024   1.399       .  A
C1024      C1025   1.408       .  A
C1024      H1028   1.084       .  S
C1025      C1026   1.410       .  A
C1026      H1029   1.083       .  S
C1030      C1031   1.414       .  A
C1030      C1035   1.416       .  A
C1031      C1032   1.397       .  A
C1031      H1036   1.084       .  S
C1032      C1033   1.397       .  A
C1033      C1034   1.399       .  A
C1033      H1037   1.085       .  S
C1034      C1035   1.405       .  A
C1035      H1038   1.083       .  S
C1039      N1040   1.359       .  A
C1039      N1044   1.358       .  A
N1040      C1041   1.354       .  A
C1041      N1042   1.355       .  A
N1042      C1043   1.357       .  A
C1043      N1044   1.357       .  A
C1045      N1046   1.354       .  A
C1045      N1050   1.355       .  A
C1045      C1272   1.466       .  S
N1046      C1047   1.359       .  A
C1047      N1048   1.358       .  A
C1047      C1172   1.455       .  S
N1048      C1049   1.356       .  A
C1049      N1050   1.357       .  A
C1049      C1378   1.461       .  S
C1051      N1052   1.360       .  A
C1051      N1056   1.360       .  A
C1051      C1245   1.466       .  S
N1052      C1053   1.359       .  A
C1053      N1054   1.360       .  A
C1053      C1104   1.471       .  S
N1054      C1055   1.359       .  A
C1055      N1056   1.356       .  A
C1055      C1310   1.473       .  S
C1057      N1058   1.357       .  A
C1057      N1062   1.360       .  A
C1057      C1369   1.468       .  S
N1058      C1059   1.356       .  A
C1059      N1060   1.357       .  A
C1059      C1163   1.470       .  S
N1060      C1061   1.361       .  A
C1061      N1062   1.361       .  A
C1061      C1222   1.467       .  S
C1063      N1064   1.360       .  A
C1063      N1068   1.363       .  A
C1063      C1145   1.466       .  S
N1064      C1065   1.358       .  A
C1065      N1066   1.357       .  A
C1065      C1213   1.466       .  S
N1066      C1067   1.356       .  A
C1067      N1068   1.358       .  A
C1067      C1319   1.472       .  S
C1069      N1070   1.358       .  A
C1069      N1074   1.360       .  A
C1069      C1263   1.469       .  S
N1070      C1071   1.357       .  A
C1071      N1072   1.356       .  A
C1071      C1154   1.469       .  S
N1072      C1073   1.359       .  A
C1073      N1074   1.361       .  A
C1073      C1328   1.465       .  S
C1075      N1076   1.357       .  A
C1075      N1080   1.358       .  A
C1075      C1351   1.459       .  S
N1076      C1077   1.358       .  A
C1077      N1078   1.360       .  A
C1077      C1113   1.466       .  S
N1078      C1079   1.358       .  A
C1079      N1080   1.354       .  A
C1079      C1204   1.468       .  S
O1081     Cu1089   2.083       .  S
O1081      C1091   1.284       .  A
O1082     Cu1089   2.064       .  S
O1082      C1092   1.282       .  A
O1083     Cu1089   2.070       .  S
O1083      C1093   1.285       .  A
O1084     Cu1089   2.096       .  S
O1084      C1094   1.287       .  A
O1085     Cu1090   1.941       .  S
O1085      C1094   1.271       .  A
O1086     Cu1090   1.933       .  S
O1086      C1093   1.270       .  A
O1087     Cu1090   1.939       .  S
O1087      C1092   1.272       .  A
O1088     Cu1090   1.948       .  S
O1088      C1091   1.274       .  A
Cu1089    Cu1090   2.358       .  S
C1091      C1126   1.496       .  S
C1092      C1097   1.482       .  S
C1093      C1115   1.485       .  S
C1094      C1108   1.496       .  S
C1095      C1389   1.465       .  S
C1095      C1096   1.414       .  A
C1095      C1100   1.421       .  A
C1096      C1097   1.396       .  A
C1096      H1101   1.084       .  S
C1097      C1098   1.395       .  A
C1099      C1149   1.502       .  S
C1100      H1103   1.082       .  S
C1104      C1105   1.422       .  A
C1104      C1109   1.418       .  A
C1105      H1110   1.083       .  S
C1106      C1156   1.509   1_554  S
C1107      C1108   1.401       .  A
C1108      C1109   1.400       .  A
C1109      H1112   1.083       .  S
C1113      C1114   1.412       .  A
C1113      C1118   1.422       .  A
C1114      C1115   1.393       .  A
C1114      H1119   1.084       .  S
C1115      C1116   1.397       .  A
C1117      C1167   1.505       .  S
C1118      H1121   1.083       .  S
C1122      C1283   1.463       .  S
C1122      C1123   1.414       .  A
C1122      C1127   1.421       .  A
C1123      H1128   1.083       .  S
C1124      C1174   1.495       .  S
C1125      C1126   1.396       .  A
C1126      C1127   1.404       .  A
C1127      H1130   1.083       .  S
O1131     Cu1139   1.949       .  S
O1131      C1141   1.273       .  A
O1132     Cu1139   1.937       .  S
O1132      C1142   1.272       .  A
O1133     Cu1139   1.935       .  S
O1133      C1143   1.271       .  A
O1134     Cu1139   1.942       .  S
O1134      C1144   1.271       .  A
O1135     Cu1140   2.092       .  S
O1135      C1144   1.286       .  A
O1136     Cu1140   2.065       .  S
O1136      C1143   1.284       .  A
O1137     Cu1140   2.062       .  S
O1137      C1142   1.282       .  A
O1138     Cu1140   2.087       .  S
O1138      C1141   1.285       .  A
Cu1139    Cu1140   2.359       .  S
C1141      C1147   1.497       .  S
C1142      C1176   1.479       .  S
C1143      C1158   1.484       .  S
C1144      C1165   1.495       .  S
C1145      C1146   1.419       .  A
C1145      C1150   1.417       .  A
C1146      C1147   1.401       .  A
C1146      H1151   1.083       .  S
C1147      C1148   1.398       .  A
C1148      C1149   1.405       .  A
C1148      H1152   1.083       .  S
C1149      C1150   1.403       .  A
C1150      H1153   1.083       .  S
C1154      C1155   1.425       .  A
C1154      C1159   1.412       .  A
C1155      C1156   1.414       .  A
C1155      H1160   1.083       .  S
C1156      C1157   1.402       .  A
C1157      C1158   1.396       .  A
C1157      H1161   1.084       .  S
C1158      C1159   1.392       .  A
C1159      H1162   1.084       .  S
C1163      C1164   1.419       .  A
C1163      C1168   1.421       .  A
C1164      C1165   1.402       .  A
C1164      H1169   1.083       .  S
C1165      C1166   1.400       .  A
C1166      C1167   1.403       .  A
C1166      H1170   1.085       .  S
C1167      C1168   1.407       .  A
C1168      H1171   1.083       .  S
C1172      C1173   1.415       .  A
C1172      C1177   1.412       .  A
C1173      C1174   1.404       .  A
C1173      H1178   1.083       .  S
C1174      C1175   1.401       .  A
C1175      C1176   1.395       .  A
C1175      H1179   1.086       .  S
C1176      C1177   1.394       .  A
C1177      H1180   1.084       .  S
O1181     Cu1189   2.074       .  S
O1181      C1191   1.283       .  A
O1182     Cu1189   2.074       .  S
O1182      C1192   1.284       .  A
O1183     Cu1189   2.094       .  S
O1183      C1193   1.287       .  A
O1184     Cu1189   2.072       .  S
O1184      C1194   1.284       .  A
O1185     Cu1190   1.930       .  S
O1185      C1194   1.270       .  A
O1186     Cu1190   1.942       .  S
O1186      C1193   1.271       .  A
O1187     Cu1190   1.947       .  S
O1187      C1192   1.272       .  A
O1188     Cu1190   1.944       .  S
O1188      C1191   1.273       .  A
Cu1189    Cu1190   2.358       .  S
C1191      C1206   1.487       .  S
C1192      C1215   1.490       .  S
C1193      C1226   1.498       .  S
C1194      C1199   1.485       .  S
C1195      C1391   1.462       .  S
C1195      C1196   1.418       .  A
C1195      C1200   1.414       .  A
C1196      H1201   1.083       .  S
C1197      C1249   1.496       .  S
C1198      C1199   1.397       .  A
C1199      C1200   1.396       .  A
C1200      H1203   1.084       .  S
C1204      C1205   1.417       .  A
C1204      C1209   1.424       .  A
C1205      C1206   1.397       .  A
C1205      H1210   1.083       .  S
C1206      C1207   1.396       .  A
C1208      C1258   1.508   1_545  S
C1209      H1212   1.083       .  S
C1213      C1214   1.415       .  A
C1213      C1218   1.417       .  A
C1214      C1215   1.398       .  A
C1214      H1219   1.084       .  S
C1215      C1216   1.398       .  A
C1217      C1265   1.498       .  S
C1218      H1221   1.083       .  S
C1222      C1223   1.418       .  A
C1222      C1227   1.419       .  A
C1223      H1228   1.083       .  S
C1224      C1276   1.501       .  S
C1225      C1226   1.400       .  A
C1226      C1227   1.402       .  A
C1227      H1230   1.083       .  S
O1231     Cu1239   2.092       .  S
O1231      C1241   1.286       .  A
O1232     Cu1239   2.072       .  S
O1232      C1242   1.284       .  A
O1233     Cu1239   2.079       .  S
O1233      C1243   1.285       .  A
O1234     Cu1239   2.073       .  S
O1234      C1244   1.284       .  A
O1235     Cu1240   1.943       .  S
O1235      C1244   1.272       .  A
O1236     Cu1240   1.947       .  S
O1236      C1243   1.272       .  A
O1237     Cu1240   1.943       .  S
O1237      C1242   1.272       .  A
O1238     Cu1240   1.952       .  S
O1238      C1241   1.273       .  A
Cu1239    Cu1240   2.356       .  S
C1241      C1247   1.500       .  S
C1242      C1274   1.487       .  S
C1243      C1267   1.491       .  S
C1244      C1256   1.489       .  S
C1245      C1246   1.420       .  A
C1245      C1250   1.414       .  A
C1246      C1247   1.405       .  A
C1246      H1251   1.083       .  S
C1247      C1248   1.401       .  A
C1248      C1249   1.404       .  A
C1248      H1252   1.084       .  S
C1249      C1250   1.400       .  A
C1250      H1253   1.083       .  S
C1254      C1281   1.468       .  S
C1254      C1255   1.416       .  A
C1254      C1259   1.423       .  A
C1255      C1256   1.395       .  A
C1255      H1260   1.084       .  S
C1256      C1257   1.395       .  A
C1257      C1258   1.404       .  A
C1257      H1261   1.084       .  S
C1258      C1259   1.410       .  A
C1259      H1262   1.083       .  S
C1263      C1264   1.417       .  A
C1263      C1268   1.417       .  A
C1264      C1265   1.406       .  A
C1264      H1269   1.083       .  S
C1265      C1266   1.402       .  A
C1266      C1267   1.400       .  A
C1266      H1270   1.085       .  S
C1267      C1268   1.402       .  A
C1268      H1271   1.083       .  S
C1272      C1273   1.414       .  A
C1272      C1277   1.419       .  A
C1273      C1274   1.397       .  A
C1273      H1278   1.084       .  S
C1274      C1275   1.397       .  A
C1275      C1276   1.402       .  A
C1275      H1279   1.085       .  S
C1276      C1277   1.409       .  A
C1277      H1280   1.082       .  S
C1281      N1282   1.356       .  A
C1281      N1286   1.361       .  A
N1282      C1283   1.357       .  A
C1283      N1284   1.360       .  A
N1284      C1285   1.358       .  A
C1285      N1286   1.361       .  A
C1285      C1360   1.475       .  S
O1287     Cu1295   1.942       .  S
O1287      C1297   1.271       .  A
O1288     Cu1295   1.944       .  S
O1288      C1298   1.272       .  A
O1289     Cu1295   1.931       .  S
O1289      C1299   1.271       .  A
O1290     Cu1295   1.942       .  S
O1290      C1300   1.271       .  A
O1291     Cu1296   2.092       .  S
O1291      C1300   1.286       .  A
O1292     Cu1296   2.067       .  S
O1292      C1299   1.283       .  A
O1293     Cu1296   2.071       .  S
O1293      C1298   1.284       .  A
O1294     Cu1296   2.078       .  S
O1294      C1297   1.285       .  A
Cu1295    Cu1296   2.357       .  S
C1297      C1323   1.489       .  S
C1298      C1314   1.488       .  S
C1299      C1303   1.482       .  S
C1300      C1332   1.497       .  S
C1301      C1387   1.456       .  S
C1301      C1302   1.413       .  A
C1301      C1306   1.414       .  A
C1302      C1303   1.396       .  A
C1302      H1307   1.083       .  S
C1303      C1304   1.397       .  A
C1304      C2697   1.399   1_455  A
C1304      H2700   1.085   1_455  S
C1305      C1353   1.491       .  S
C1305      C2696   1.399       .  A
C1305      C2698   1.402       .  A
C1306      C2697   1.402   1_455  A
C1306      H1309   1.083       .  S
H1308      C2696   1.085       .  S
C1310      C1311   1.429       .  A
C1310      C1315   1.414       .  A
C1311      C2704   1.415   1_455  A
C1311      H1316   1.083       .  S
C1312      C1364   1.518       .  S
C1312      C2703   1.415       .  A
C1312      C2705   1.406       .  A
C1313      C2704   1.406   1_455  A
C1313      C1314   1.395       .  A
C1313      H2709   1.084   1_455  S
C1314      C1315   1.393       .  A
C1315      H1318   1.084       .  S
H1317      C2705   1.083       .  S
C1319      C1320   1.423       .  A
C1319      C1324   1.415       .  A
C1320      C2713   1.411       .  A
C1320      H1325   1.083       .  S
C1321      C1373   1.506       .  S
C1321      C2712   1.411       .  A
C1321      C2714   1.402       .  A
C1322      C2713   1.402       .  A
C1322      C1323   1.399       .  A
C1322      H2718   1.085   1_455  S
C1323      C1324   1.399       .  A
C1324      H1327   1.084       .  S
H1326      C2714   1.085       .  S
C1328      C1329   1.414       .  A
C1328      C1333   1.420       .  A
C1329      C2722   1.400   1_455  A
C1329      H1334   1.083       .  S
C1330      C1382   1.495       .  S
C1330      C2721   1.400       .  A
C1330      C2723   1.402       .  A
C1331      C2722   1.402   1_455  A
C1331      C1332   1.401       .  A
C1331      H2727   1.084   1_455  S
C1332      C1333   1.404       .  A
C1333      H1336   1.083       .  S
H1335      C2723   1.085       .  S
O1337     Cu1345   1.936       .  S
O1337      C1347   1.271       .  A
O1338     Cu1345   1.929       .  S
O1338      C1348   1.270       .  A
O1339     Cu1345   1.949       .  S
O1339      C1349   1.271       .  A
O1340     Cu1345   1.942       .  S
O1340      C1350   1.272       .  A
O1341     Cu1346   2.080       .  S
O1341      C1350   1.284       .  A
O1342     Cu1346   2.077       .  S
O1342      C1349   1.286       .  A
O1343     Cu1346   2.070       .  S
O1343      C1348   1.284       .  A
O1344     Cu1346   2.092       .  S
O1344      C1347   1.286       .  A
Cu1345    Cu1346   2.357       .  S
C1347      C1355   1.495       .  S
C1348      C1380   1.485       .  S
C1349      C1371   1.491       .  S
C1350      C1362   1.489       .  S
C1351      C1352   1.412       .  A
C1351      C1356   1.419       .  A
C1352      C1353   1.398       .  A
C1352      H1357   1.083       .  S
C1353      C1354   1.401       .  A
C1354      C1355   1.400       .  A
C1354      H1358   1.085       .  S
C1355      C1356   1.403       .  A
C1356      H1359   1.083       .  S
C1360      C1361   1.417       .  A
C1360      C1365   1.429       .  A
C1361      C1362   1.396       .  A
C1361      H1366   1.084       .  S
C1362      C1363   1.397       .  A
C1363      C1364   1.404       .  A
C1363      H1367   1.085       .  S
C1364      C1365   1.415       .  A
C1365      H1368   1.083       .  S
C1369      C1370   1.413       .  A
C1369      C1374   1.421       .  A
C1370      C1371   1.395       .  A
C1370      H1375   1.084       .  S
C1371      C1372   1.399       .  A
C1372      C1373   1.408       .  A
C1372      H1376   1.084       .  S
C1373      C1374   1.410       .  A
C1374      H1377   1.083       .  S
C1378      C1379   1.414       .  A
C1378      C1383   1.416       .  A
C1379      C1380   1.397       .  A
C1379      H1384   1.084       .  S
C1380      C1381   1.397       .  A
C1381      C1382   1.399       .  A
C1381      H1385   1.085       .  S
C1382      C1383   1.405       .  A
C1383      H1386   1.083       .  S
C1387      N1388   1.359       .  A
C1387      N1392   1.358       .  A
N1388      C1389   1.354       .  A
C1389      N1390   1.355       .  A
N1390      C1391   1.357       .  A
C1391      N1392   1.357       .  A
C1393      N1394   1.354       .  A
C1393      N1398   1.355       .  A
C1393      C1620   1.466       .  S
N1394      C1395   1.359       .  A
C1395      N1396   1.358       .  A
C1395      C1520   1.455       .  S
N1396      C1397   1.356       .  A
C1397      N1398   1.357       .  A
C1397      C1726   1.461       .  S
C1399      N1400   1.360       .  A
C1399      N1404   1.360       .  A
C1399      C1593   1.466       .  S
N1400      C1401   1.359       .  A
C1401      N1402   1.360       .  A
C1401      C1452   1.471       .  S
N1402      C1403   1.359       .  A
C1403      N1404   1.356       .  A
C1403      C1658   1.473       .  S
C1405      N1406   1.357       .  A
C1405      N1410   1.360       .  A
C1405      C1717   1.468       .  S
N1406      C1407   1.356       .  A
C1407      N1408   1.357       .  A
C1407      C1511   1.470       .  S
N1408      C1409   1.361       .  A
C1409      N1410   1.361       .  A
C1409      C1570   1.467       .  S
C1411      N1412   1.360       .  A
C1411      N1416   1.363       .  A
C1411      C1493   1.466       .  S
N1412      C1413   1.358       .  A
C1413      N1414   1.357       .  A
C1413      C1561   1.466       .  S
N1414      C1415   1.356       .  A
C1415      N1416   1.358       .  A
C1415      C1667   1.472       .  S
C1417      N1418   1.358       .  A
C1417      N1422   1.360       .  A
C1417      C1611   1.469       .  S
N1418      C1419   1.357       .  A
C1419      N1420   1.356       .  A
C1419      C1502   1.469       .  S
N1420      C1421   1.359       .  A
C1421      N1422   1.361       .  A
C1421      C1676   1.465       .  S
C1423      N1424   1.357       .  A
C1423      N1428   1.358       .  A
C1423      C1699   1.459       .  S
N1424      C1425   1.358       .  A
C1425      N1426   1.360       .  A
C1425      C1461   1.466       .  S
N1426      C1427   1.358       .  A
C1427      N1428   1.354       .  A
C1427      C1552   1.468       .  S
O1429     Cu1437   2.083       .  S
O1429      C1439   1.284       .  A
O1430     Cu1437   2.064       .  S
O1430      C1440   1.282       .  A
O1431     Cu1437   2.070       .  S
O1431      C1441   1.285       .  A
O1432     Cu1437   2.096       .  S
O1432      C1442   1.287       .  A
O1433     Cu1438   1.941       .  S
O1433      C1442   1.271       .  A
O1434     Cu1438   1.933       .  S
O1434      C1441   1.270       .  A
O1435     Cu1438   1.939       .  S
O1435      C1440   1.272       .  A
O1436     Cu1438   1.948       .  S
O1436      C1439   1.274       .  A
Cu1437    Cu1438   2.358       .  S
C1439      C1474   1.496       .  S
C1440      C1445   1.482       .  S
C1441      C1463   1.485       .  S
C1442      C1456   1.496       .  S
C1443      C1737   1.465       .  S
C1443      C1444   1.414       .  A
C1443      C1448   1.421       .  A
C1444      C1445   1.396       .  A
C1444      H1449   1.084       .  S
C1445      C1446   1.395       .  A
C1446      C1795   1.400   1_554  A
C1446      H1798   1.086   1_554  S
C1447      C1497   1.502       .  S
C1447      C1794   1.400       .  A
C1447      C1796   1.410       .  A
C1448      C1795   1.410   1_554  A
C1448      H1451   1.082       .  S
H1450      C1794   1.086       .  S
C1452      C1453   1.422       .  A
C1452      C1457   1.418       .  A
C1453      C1802   1.408       .  A
C1453      H1458   1.083       .  S
C1454      C1504   1.509       .  S
C1454      C1801   1.408       .  A
C1454      C1803   1.406       .  A
C1455      C1802   1.406       .  A
C1455      C1456   1.401       .  A
C1455      H1807   1.085   1_554  S
C1456      C1457   1.400       .  A
C1457      H1460   1.083       .  S
H1459      C1803   1.085       .  S
C1461      C1462   1.412       .  A
C1461      C1466   1.422       .  A
C1462      C1463   1.393       .  A
C1462      H1467   1.084       .  S
C1463      C1464   1.397       .  A
C1464      C1813   1.403   1_554  A
C1464      H1816   1.084   1_554  S
C1465      C1515   1.505       .  S
C1465      C1812   1.403       .  A
C1465      C1814   1.411       .  A
C1466      C1813   1.411   1_554  A
C1466      H1469   1.083       .  S
H1468      C1812   1.084       .  S
C1470      C1631   1.463       .  S
C1470      C1471   1.414       .  A
C1470      C1475   1.421       .  A
C1471      C1820   1.399   1_554  A
C1471      H1476   1.083       .  S
C1472      C1522   1.495       .  S
C1472      C1819   1.399       .  A
C1472      C1821   1.400       .  A
C1473      C1820   1.400   1_554  A
C1473      C1474   1.396       .  A
C1473      H1825   1.083   1_554  S
C1474      C1475   1.404       .  A
C1475      H1478   1.083       .  S
H1477      C1821   1.083       .  S
O1479     Cu1487   1.949       .  S
O1479      C1489   1.273       .  A
O1480     Cu1487   1.937       .  S
O1480      C1490   1.272       .  A
O1481     Cu1487   1.935       .  S
O1481      C1491   1.271       .  A
O1482     Cu1487   1.942       .  S
O1482      C1492   1.271       .  A
O1483     Cu1488   2.092       .  S
O1483      C1492   1.286       .  A
O1484     Cu1488   2.065       .  S
O1484      C1491   1.284       .  A
O1485     Cu1488   2.062       .  S
O1485      C1490   1.282       .  A
O1486     Cu1488   2.087       .  S
O1486      C1489   1.285       .  A
Cu1487    Cu1488   2.359       .  S
C1489      C1495   1.497       .  S
C1490      C1524   1.479       .  S
C1491      C1506   1.484       .  S
C1492      C1513   1.495       .  S
C1493      C1494   1.419       .  A
C1493      C1498   1.417       .  A
C1494      C1495   1.401       .  A
C1494      H1499   1.083       .  S
C1495      C1496   1.398       .  A
C1496      C1497   1.405       .  A
C1496      H1500   1.083       .  S
C1497      C1498   1.403       .  A
C1498      H1501   1.083       .  S
C1502      C1503   1.425       .  A
C1502      C1507   1.412       .  A
C1503      C1504   1.414       .  A
C1503      H1508   1.083       .  S
C1504      C1505   1.402       .  A
C1505      C1506   1.396       .  A
C1505      H1509   1.084       .  S
C1506      C1507   1.392       .  A
C1507      H1510   1.084       .  S
C1511      C1512   1.419       .  A
C1511      C1516   1.421       .  A
C1512      C1513   1.402       .  A
C1512      H1517   1.083       .  S
C1513      C1514   1.400       .  A
C1514      C1515   1.403       .  A
C1514      H1518   1.085       .  S
C1515      C1516   1.407       .  A
C1516      H1519   1.083       .  S
C1520      C1521   1.415       .  A
C1520      C1525   1.412       .  A
C1521      C1522   1.404       .  A
C1521      H1526   1.083       .  S
C1522      C1523   1.401       .  A
C1523      C1524   1.395       .  A
C1523      H1527   1.086       .  S
C1524      C1525   1.394       .  A
C1525      H1528   1.084       .  S
O1529     Cu1537   2.074       .  S
O1529      C1539   1.283       .  A
O1530     Cu1537   2.074       .  S
O1530      C1540   1.284       .  A
O1531     Cu1537   2.094       .  S
O1531      C1541   1.287       .  A
O1532     Cu1537   2.072       .  S
O1532      C1542   1.284       .  A
O1533     Cu1538   1.930       .  S
O1533      C1542   1.270       .  A
O1534     Cu1538   1.942       .  S
O1534      C1541   1.271       .  A
O1535     Cu1538   1.947       .  S
O1535      C1540   1.272       .  A
O1536     Cu1538   1.944       .  S
O1536      C1539   1.273       .  A
Cu1537    Cu1538   2.358       .  S
C1539      C1554   1.487       .  S
C1540      C1563   1.490       .  S
C1541      C1574   1.498       .  S
C1542      C1547   1.485       .  S
C1543      C1739   1.462       .  S
C1543      C1544   1.418       .  A
C1543      C1548   1.414       .  A
C1544      C2241   1.407   1_545  A
C1544      H1549   1.083       .  S
C1545      C1597   1.496       .  S
C1545      C2240   1.407       .  A
C1545      C2242   1.399       .  A
C1546      C2241   1.399   1_545  A
C1546      C1547   1.397       .  A
C1546      H2246   1.085   1_545  S
C1547      C1548   1.396       .  A
C1548      H1551   1.084       .  S
H1550      C2242   1.085       .  S
C1552      C1553   1.417       .  A
C1552      C1557   1.424       .  A
C1553      C1554   1.397       .  A
C1553      H1558   1.083       .  S
C1554      C1555   1.396       .  A
C1555      C2252   1.402       .  A
C1555      H2255   1.086   1_545  S
C1556      C1606   1.508       .  S
C1556      C2251   1.402       .  A
C1556      C2253   1.410       .  A
C1557      C2252   1.410       .  A
C1557      H1560   1.083       .  S
H1559      C2251   1.086       .  S
C1561      C1562   1.415       .  A
C1561      C1566   1.417       .  A
C1562      C1563   1.398       .  A
C1562      H1567   1.084       .  S
C1563      C1564   1.398       .  A
C1564      C2261   1.403   1_545  A
C1564      H2264   1.084   1_545  S
C1565      C1613   1.498       .  S
C1565      C2260   1.403       .  A
C1565      C2262   1.406       .  A
C1566      C2261   1.406   1_545  A
C1566      H1569   1.083       .  S
H1568      C2260   1.084       .  S
C1570      C1571   1.418       .  A
C1570      C1575   1.419       .  A
C1571      C2268   1.403   1_545  A
C1571      H1576   1.083       .  S
C1572      C1624   1.501       .  S
C1572      C2267   1.403       .  A
C1572      C2269   1.403       .  A
C1573      C2268   1.403   1_545  A
C1573      C1574   1.400       .  A
C1573      H2273   1.084   1_545  S
C1574      C1575   1.402       .  A
C1575      H1578   1.083       .  S
H1577      C2269   1.084       .  S
O1579     Cu1587   2.092       .  S
O1579      C1589   1.286       .  A
O1580     Cu1587   2.072       .  S
O1580      C1590   1.284       .  A
O1581     Cu1587   2.079       .  S
O1581      C1591   1.285       .  A
O1582     Cu1587   2.073       .  S
O1582      C1592   1.284       .  A
O1583     Cu1588   1.943       .  S
O1583      C1592   1.272       .  A
O1584     Cu1588   1.947       .  S
O1584      C1591   1.272       .  A
O1585     Cu1588   1.943       .  S
O1585      C1590   1.272       .  A
O1586     Cu1588   1.952       .  S
O1586      C1589   1.273       .  A
Cu1587    Cu1588   2.356       .  S
C1589      C1595   1.500       .  S
C1590      C1622   1.487       .  S
C1591      C1615   1.491       .  S
C1592      C1604   1.489       .  S
C1593      C1594   1.420       .  A
C1593      C1598   1.414       .  A
C1594      C1595   1.405       .  A
C1594      H1599   1.083       .  S
C1595      C1596   1.401       .  A
C1596      C1597   1.404       .  A
C1596      H1600   1.084       .  S
C1597      C1598   1.400       .  A
C1598      H1601   1.083       .  S
C1602      C1629   1.468       .  S
C1602      C1603   1.416       .  A
C1602      C1607   1.423       .  A
C1603      C1604   1.395       .  A
C1603      H1608   1.084       .  S
C1604      C1605   1.395       .  A
C1605      C1606   1.404       .  A
C1605      H1609   1.084       .  S
C1606      C1607   1.410       .  A
C1607      H1610   1.083       .  S
C1611      C1612   1.417       .  A
C1611      C1616   1.417       .  A
C1612      C1613   1.406       .  A
C1612      H1617   1.083       .  S
C1613      C1614   1.402       .  A
C1614      C1615   1.400       .  A
C1614      H1618   1.085       .  S
C1615      C1616   1.402       .  A
C1616      H1619   1.083       .  S
C1620      C1621   1.414       .  A
C1620      C1625   1.419       .  A
C1621      C1622   1.397       .  A
C1621      H1626   1.084       .  S
C1622      C1623   1.397       .  A
C1623      C1624   1.402       .  A
C1623      H1627   1.085       .  S
C1624      C1625   1.409       .  A
C1625      H1628   1.082       .  S
C1629      N1630   1.356       .  A
C1629      N1634   1.361       .  A
N1630      C1631   1.357       .  A
C1631      N1632   1.360       .  A
N1632      C1633   1.358       .  A
C1633      N1634   1.361       .  A
C1633      C1708   1.475       .  S
O1635     Cu1643   1.942       .  S
O1635      C1645   1.271       .  A
O1636     Cu1643   1.944       .  S
O1636      C1646   1.272       .  A
O1637     Cu1643   1.931       .  S
O1637      C1647   1.271       .  A
O1638     Cu1643   1.942       .  S
O1638      C1648   1.271       .  A
O1639     Cu1644   2.092       .  S
O1639      C1648   1.286       .  A
O1640     Cu1644   2.067       .  S
O1640      C1647   1.283       .  A
O1641     Cu1644   2.071       .  S
O1641      C1646   1.284       .  A
O1642     Cu1644   2.078       .  S
O1642      C1645   1.285       .  A
Cu1643    Cu1644   2.357       .  S
C1645      C1671   1.489       .  S
C1646      C1662   1.488       .  S
C1647      C1651   1.482       .  S
C1648      C1680   1.497       .  S
C1649      C1735   1.456       .  S
C1649      C1650   1.413       .  A
C1649      C1654   1.414       .  A
C1650      C1651   1.396       .  A
C1650      H1655   1.083       .  S
C1651      C1652   1.397       .  A
C1653      C1701   1.491       .  S
C1654      H1657   1.083       .  S
C1658      C1659   1.429       .  A
C1658      C1663   1.414       .  A
C1659      H1664   1.083       .  S
C1660      C1712   1.518       .  S
C1661      C1662   1.395       .  A
C1662      C1663   1.393       .  A
C1663      H1666   1.084       .  S
C1667      C1668   1.423       .  A
C1667      C1672   1.415       .  A
C1668      H1673   1.083       .  S
C1669      C1721   1.506   1_455  S
C1670      C1671   1.399       .  A
C1671      C1672   1.399       .  A
C1672      H1675   1.084       .  S
C1676      C1677   1.414       .  A
C1676      C1681   1.420       .  A
C1677      H1682   1.083       .  S
C1678      C1730   1.495       .  S
C1679      C1680   1.401       .  A
C1680      C1681   1.404       .  A
C1681      H1684   1.083       .  S
O1685     Cu1693   1.936       .  S
O1685      C1695   1.271       .  A
O1686     Cu1693   1.929       .  S
O1686      C1696   1.270       .  A
O1687     Cu1693   1.949       .  S
O1687      C1697   1.271       .  A
O1688     Cu1693   1.942       .  S
O1688      C1698   1.272       .  A
O1689     Cu1694   2.080       .  S
O1689      C1698   1.284       .  A
O1690     Cu1694   2.077       .  S
O1690      C1697   1.286       .  A
O1691     Cu1694   2.070       .  S
O1691      C1696   1.284       .  A
O1692     Cu1694   2.092       .  S
O1692      C1695   1.286       .  A
Cu1693    Cu1694   2.357       .  S
C1695      C1703   1.495       .  S
C1696      C1728   1.485       .  S
C1697      C1719   1.491       .  S
C1698      C1710   1.489       .  S
C1699      C1700   1.412       .  A
C1699      C1704   1.419       .  A
C1700      C1701   1.398       .  A
C1700      H1705   1.083       .  S
C1701      C1702   1.401       .  A
C1702      C1703   1.400       .  A
C1702      H1706   1.085       .  S
C1703      C1704   1.403       .  A
C1704      H1707   1.083       .  S
C1708      C1709   1.417       .  A
C1708      C1713   1.429       .  A
C1709      C1710   1.396       .  A
C1709      H1714   1.084       .  S
C1710      C1711   1.397       .  A
C1711      C1712   1.404       .  A
C1711      H1715   1.085       .  S
C1712      C1713   1.415       .  A
C1713      H1716   1.083       .  S
C1717      C1718   1.413       .  A
C1717      C1722   1.421       .  A
C1718      C1719   1.395       .  A
C1718      H1723   1.084       .  S
C1719      C1720   1.399       .  A
C1720      C1721   1.408       .  A
C1720      H1724   1.084       .  S
C1721      C1722   1.410       .  A
C1722      H1725   1.083       .  S
C1726      C1727   1.414       .  A
C1726      C1731   1.416       .  A
C1727      C1728   1.397       .  A
C1727      H1732   1.084       .  S
C1728      C1729   1.397       .  A
C1729      C1730   1.399       .  A
C1729      H1733   1.085       .  S
C1730      C1731   1.405       .  A
C1731      H1734   1.083       .  S
C1735      N1736   1.359       .  A
C1735      N1740   1.358       .  A
N1736      C1737   1.354       .  A
C1737      N1738   1.355       .  A
N1738      C1739   1.357       .  A
C1739      N1740   1.357       .  A
C1741      N1742   1.354       .  A
C1741      N1746   1.355       .  A
C1741      C1968   1.466       .  S
N1742      C1743   1.359       .  A
C1743      N1744   1.358       .  A
C1743      C1868   1.455       .  S
N1744      C1745   1.356       .  A
C1745      N1746   1.357       .  A
C1745      C2074   1.461       .  S
C1747      N1748   1.360       .  A
C1747      N1752   1.360       .  A
C1747      C1941   1.466       .  S
N1748      C1749   1.359       .  A
C1749      N1750   1.360       .  A
C1749      C1800   1.471       .  S
N1750      C1751   1.359       .  A
C1751      N1752   1.356       .  A
C1751      C2006   1.473       .  S
C1753      N1754   1.357       .  A
C1753      N1758   1.360       .  A
C1753      C2065   1.468       .  S
N1754      C1755   1.356       .  A
C1755      N1756   1.357       .  A
C1755      C1859   1.470       .  S
N1756      C1757   1.361       .  A
C1757      N1758   1.361       .  A
C1757      C1918   1.467       .  S
C1759      N1760   1.360       .  A
C1759      N1764   1.363       .  A
C1759      C1841   1.466       .  S
N1760      C1761   1.358       .  A
C1761      N1762   1.357       .  A
C1761      C1909   1.466       .  S
N1762      C1763   1.356       .  A
C1763      N1764   1.358       .  A
C1763      C2015   1.472       .  S
C1765      N1766   1.358       .  A
C1765      N1770   1.360       .  A
C1765      C1959   1.469       .  S
N1766      C1767   1.357       .  A
C1767      N1768   1.356       .  A
C1767      C1850   1.469       .  S
N1768      C1769   1.359       .  A
C1769      N1770   1.361       .  A
C1769      C2024   1.465       .  S
C1771      N1772   1.357       .  A
C1771      N1776   1.358       .  A
C1771      C2047   1.459       .  S
N1772      C1773   1.358       .  A
C1773      N1774   1.360       .  A
C1773      C1809   1.466       .  S
N1774      C1775   1.358       .  A
C1775      N1776   1.354       .  A
C1775      C1900   1.468       .  S
O1777     Cu1785   2.083       .  S
O1777      C1787   1.284       .  A
O1778     Cu1785   2.064       .  S
O1778      C1788   1.282       .  A
O1779     Cu1785   2.070       .  S
O1779      C1789   1.285       .  A
O1780     Cu1785   2.096       .  S
O1780      C1790   1.287       .  A
O1781     Cu1786   1.941       .  S
O1781      C1790   1.271       .  A
O1782     Cu1786   1.933       .  S
O1782      C1789   1.270       .  A
O1783     Cu1786   1.939       .  S
O1783      C1788   1.272       .  A
O1784     Cu1786   1.948       .  S
O1784      C1787   1.274       .  A
Cu1785    Cu1786   2.358       .  S
C1787      C1822   1.496       .  S
C1788      C1793   1.482       .  S
C1789      C1811   1.485       .  S
C1790      C1804   1.496       .  S
C1791      C2085   1.465       .  S
C1791      C1792   1.414       .  A
C1791      C1796   1.421       .  A
C1792      C1793   1.396       .  A
C1792      H1797   1.084       .  S
C1793      C1794   1.395       .  A
C1795      C1845   1.502       .  S
C1796      H1799   1.082       .  S
C1800      C1801   1.422       .  A
C1800      C1805   1.418       .  A
C1801      H1806   1.083       .  S
C1802      C1852   1.509   1_554  S
C1803      C1804   1.401       .  A
C1804      C1805   1.400       .  A
C1805      H1808   1.083       .  S
C1809      C1810   1.412       .  A
C1809      C1814   1.422       .  A
C1810      C1811   1.393       .  A
C1810      H1815   1.084       .  S
C1811      C1812   1.397       .  A
C1813      C1863   1.505       .  S
C1814      H1817   1.083       .  S
C1818      C1979   1.463       .  S
C1818      C1819   1.414       .  A
C1818      C1823   1.421       .  A
C1819      H1824   1.083       .  S
C1820      C1870   1.495       .  S
C1821      C1822   1.396       .  A
C1822      C1823   1.404       .  A
C1823      H1826   1.083       .  S
O1827     Cu1835   1.949       .  S
O1827      C1837   1.273       .  A
O1828     Cu1835   1.937       .  S
O1828      C1838   1.272       .  A
O1829     Cu1835   1.935       .  S
O1829      C1839   1.271       .  A
O1830     Cu1835   1.942       .  S
O1830      C1840   1.271       .  A
O1831     Cu1836   2.092       .  S
O1831      C1840   1.286       .  A
O1832     Cu1836   2.065       .  S
O1832      C1839   1.284       .  A
O1833     Cu1836   2.062       .  S
O1833      C1838   1.282       .  A
O1834     Cu1836   2.087       .  S
O1834      C1837   1.285       .  A
Cu1835    Cu1836   2.359       .  S
C1837      C1843   1.497       .  S
C1838      C1872   1.479       .  S
C1839      C1854   1.484       .  S
C1840      C1861   1.495       .  S
C1841      C1842   1.419       .  A
C1841      C1846   1.417       .  A
C1842      C1843   1.401       .  A
C1842      H1847   1.083       .  S
C1843      C1844   1.398       .  A
C1844      C1845   1.405       .  A
C1844      H1848   1.083       .  S
C1845      C1846   1.403       .  A
C1846      H1849   1.083       .  S
C1850      C1851   1.425       .  A
C1850      C1855   1.412       .  A
C1851      C1852   1.414       .  A
C1851      H1856   1.083       .  S
C1852      C1853   1.402       .  A
C1853      C1854   1.396       .  A
C1853      H1857   1.084       .  S
C1854      C1855   1.392       .  A
C1855      H1858   1.084       .  S
C1859      C1860   1.419       .  A
C1859      C1864   1.421       .  A
C1860      C1861   1.402       .  A
C1860      H1865   1.083       .  S
C1861      C1862   1.400       .  A
C1862      C1863   1.403       .  A
C1862      H1866   1.085       .  S
C1863      C1864   1.407       .  A
C1864      H1867   1.083       .  S
C1868      C1869   1.415       .  A
C1868      C1873   1.412       .  A
C1869      C1870   1.404       .  A
C1869      H1874   1.083       .  S
C1870      C1871   1.401       .  A
C1871      C1872   1.395       .  A
C1871      H1875   1.086       .  S
C1872      C1873   1.394       .  A
C1873      H1876   1.084       .  S
O1877     Cu1885   2.074       .  S
O1877      C1887   1.283       .  A
O1878     Cu1885   2.074       .  S
O1878      C1888   1.284       .  A
O1879     Cu1885   2.094       .  S
O1879      C1889   1.287       .  A
O1880     Cu1885   2.072       .  S
O1880      C1890   1.284       .  A
O1881     Cu1886   1.930       .  S
O1881      C1890   1.270       .  A
O1882     Cu1886   1.942       .  S
O1882      C1889   1.271       .  A
O1883     Cu1886   1.947       .  S
O1883      C1888   1.272       .  A
O1884     Cu1886   1.944       .  S
O1884      C1887   1.273       .  A
Cu1885    Cu1886   2.358       .  S
C1887      C1902   1.487       .  S
C1888      C1911   1.490       .  S
C1889      C1922   1.498       .  S
C1890      C1895   1.485       .  S
C1891      C2087   1.462       .  S
C1891      C1892   1.418       .  A
C1891      C1896   1.414       .  A
C1892      C2589   1.407   1_545  A
C1892      H1897   1.083       .  S
C1893      C1945   1.496       .  S
C1893      C2588   1.407       .  A
C1893      C2590   1.399       .  A
C1894      C2589   1.399   1_545  A
C1894      C1895   1.397       .  A
C1894      H2594   1.085   1_545  S
C1895      C1896   1.396       .  A
C1896      H1899   1.084       .  S
H1898      C2590   1.085       .  S
C1900      C1901   1.417       .  A
C1900      C1905   1.424       .  A
C1901      C1902   1.397       .  A
C1901      H1906   1.083       .  S
C1902      C1903   1.396       .  A
C1903      C2600   1.402       .  A
C1903      H2603   1.086   1_545  S
C1904      C1954   1.508       .  S
C1904      C2599   1.402       .  A
C1904      C2601   1.410       .  A
C1905      C2600   1.410       .  A
C1905      H1908   1.083       .  S
H1907      C2599   1.086       .  S
C1909      C1910   1.415       .  A
C1909      C1914   1.417       .  A
C1910      C1911   1.398       .  A
C1910      H1915   1.084       .  S
C1911      C1912   1.398       .  A
C1912      C2609   1.403   1_545  A
C1912      H2612   1.084   1_545  S
C1913      C1961   1.498       .  S
C1913      C2608   1.403       .  A
C1913      C2610   1.406       .  A
C1914      C2609   1.406   1_545  A
C1914      H1917   1.083       .  S
H1916      C2608   1.084       .  S
C1918      C1919   1.418       .  A
C1918      C1923   1.419       .  A
C1919      C2616   1.403   1_545  A
C1919      H1924   1.083       .  S
C1920      C1972   1.501       .  S
C1920      C2615   1.403       .  A
C1920      C2617   1.403       .  A
C1921      C2616   1.403   1_545  A
C1921      C1922   1.400       .  A
C1921      H2621   1.084   1_545  S
C1922      C1923   1.402       .  A
C1923      H1926   1.083       .  S
H1925      C2617   1.084       .  S
O1927     Cu1935   2.092       .  S
O1927      C1937   1.286       .  A
O1928     Cu1935   2.072       .  S
O1928      C1938   1.284       .  A
O1929     Cu1935   2.079       .  S
O1929      C1939   1.285       .  A
O1930     Cu1935   2.073       .  S
O1930      C1940   1.284       .  A
O1931     Cu1936   1.943       .  S
O1931      C1940   1.272       .  A
O1932     Cu1936   1.947       .  S
O1932      C1939   1.272       .  A
O1933     Cu1936   1.943       .  S
O1933      C1938   1.272       .  A
O1934     Cu1936   1.952       .  S
O1934      C1937   1.273       .  A
Cu1935    Cu1936   2.356       .  S
C1937      C1943   1.500       .  S
C1938      C1970   1.487       .  S
C1939      C1963   1.491       .  S
C1940      C1952   1.489       .  S
C1941      C1942   1.420       .  A
C1941      C1946   1.414       .  A
C1942      C1943   1.405       .  A
C1942      H1947   1.083       .  S
C1943      C1944   1.401       .  A
C1944      C1945   1.404       .  A
C1944      H1948   1.084       .  S
C1945      C1946   1.400       .  A
C1946      H1949   1.083       .  S
C1950      C1977   1.468       .  S
C1950      C1951   1.416       .  A
C1950      C1955   1.423       .  A
C1951      C1952   1.395       .  A
C1951      H1956   1.084       .  S
C1952      C1953   1.395       .  A
C1953      C1954   1.404       .  A
C1953      H1957   1.084       .  S
C1954      C1955   1.410       .  A
C1955      H1958   1.083       .  S
C1959      C1960   1.417       .  A
C1959      C1964   1.417       .  A
C1960      C1961   1.406       .  A
C1960      H1965   1.083       .  S
C1961      C1962   1.402       .  A
C1962      C1963   1.400       .  A
C1962      H1966   1.085       .  S
C1963      C1964   1.402       .  A
C1964      H1967   1.083       .  S
C1968      C1969   1.414       .  A
C1968      C1973   1.419       .  A
C1969      C1970   1.397       .  A
C1969      H1974   1.084       .  S
C1970      C1971   1.397       .  A
C1971      C1972   1.402       .  A
C1971      H1975   1.085       .  S
C1972      C1973   1.409       .  A
C1973      H1976   1.082       .  S
C1977      N1978   1.356       .  A
C1977      N1982   1.361       .  A
N1978      C1979   1.357       .  A
C1979      N1980   1.360       .  A
N1980      C1981   1.358       .  A
C1981      N1982   1.361       .  A
C1981      C2056   1.475       .  S
O1983     Cu1991   1.942       .  S
O1983      C1993   1.271       .  A
O1984     Cu1991   1.944       .  S
O1984      C1994   1.272       .  A
O1985     Cu1991   1.931       .  S
O1985      C1995   1.271       .  A
O1986     Cu1991   1.942       .  S
O1986      C1996   1.271       .  A
O1987     Cu1992   2.092       .  S
O1987      C1996   1.286       .  A
O1988     Cu1992   2.067       .  S
O1988      C1995   1.283       .  A
O1989     Cu1992   2.071       .  S
O1989      C1994   1.284       .  A
O1990     Cu1992   2.078       .  S
O1990      C1993   1.285       .  A
Cu1991    Cu1992   2.357       .  S
C1993      C2019   1.489       .  S
C1994      C2010   1.488       .  S
C1995      C1999   1.482       .  S
C1996      C2028   1.497       .  S
C1997      C2083   1.456       .  S
C1997      C1998   1.413       .  A
C1997      C2002   1.414       .  A
C1998      C1999   1.396       .  A
C1998      H2003   1.083       .  S
C1999      C2000   1.397       .  A
C2001      C2049   1.491       .  S
C2002      H2005   1.083       .  S
C2006      C2007   1.429       .  A
C2006      C2011   1.414       .  A
C2007      H2012   1.083       .  S
C2008      C2060   1.518       .  S
C2009      C2010   1.395       .  A
C2010      C2011   1.393       .  A
C2011      H2014   1.084       .  S
C2015      C2016   1.423       .  A
C2015      C2020   1.415       .  A
C2016      H2021   1.083       .  S
C2017      C2069   1.506   1_455  S
C2018      C2019   1.399       .  A
C2019      C2020   1.399       .  A
C2020      H2023   1.084       .  S
C2024      C2025   1.414       .  A
C2024      C2029   1.420       .  A
C2025      H2030   1.083       .  S
C2026      C2078   1.495       .  S
C2027      C2028   1.401       .  A
C2028      C2029   1.404       .  A
C2029      H2032   1.083       .  S
O2033     Cu2041   1.936       .  S
O2033      C2043   1.271       .  A
O2034     Cu2041   1.929       .  S
O2034      C2044   1.270       .  A
O2035     Cu2041   1.949       .  S
O2035      C2045   1.271       .  A
O2036     Cu2041   1.942       .  S
O2036      C2046   1.272       .  A
O2037     Cu2042   2.080       .  S
O2037      C2046   1.284       .  A
O2038     Cu2042   2.077       .  S
O2038      C2045   1.286       .  A
O2039     Cu2042   2.070       .  S
O2039      C2044   1.284       .  A
O2040     Cu2042   2.092       .  S
O2040      C2043   1.286       .  A
Cu2041    Cu2042   2.357       .  S
C2043      C2051   1.495       .  S
C2044      C2076   1.485       .  S
C2045      C2067   1.491       .  S
C2046      C2058   1.489       .  S
C2047      C2048   1.412       .  A
C2047      C2052   1.419       .  A
C2048      C2049   1.398       .  A
C2048      H2053   1.083       .  S
C2049      C2050   1.401       .  A
C2050      C2051   1.400       .  A
C2050      H2054   1.085       .  S
C2051      C2052   1.403       .  A
C2052      H2055   1.083       .  S
C2056      C2057   1.417       .  A
C2056      C2061   1.429       .  A
C2057      C2058   1.396       .  A
C2057      H2062   1.084       .  S
C2058      C2059   1.397       .  A
C2059      C2060   1.404       .  A
C2059      H2063   1.085       .  S
C2060      C2061   1.415       .  A
C2061      H2064   1.083       .  S
C2065      C2066   1.413       .  A
C2065      C2070   1.421       .  A
C2066      C2067   1.395       .  A
C2066      H2071   1.084       .  S
C2067      C2068   1.399       .  A
C2068      C2069   1.408       .  A
C2068      H2072   1.084       .  S
C2069      C2070   1.410       .  A
C2070      H2073   1.083       .  S
C2074      C2075   1.414       .  A
C2074      C2079   1.416       .  A
C2075      C2076   1.397       .  A
C2075      H2080   1.084       .  S
C2076      C2077   1.397       .  A
C2077      C2078   1.399       .  A
C2077      H2081   1.085       .  S
C2078      C2079   1.405       .  A
C2079      H2082   1.083       .  S
C2083      N2084   1.359       .  A
C2083      N2088   1.358       .  A
N2084      C2085   1.354       .  A
C2085      N2086   1.355       .  A
N2086      C2087   1.357       .  A
C2087      N2088   1.357       .  A
C2089      N2090   1.354       .  A
C2089      N2094   1.355       .  A
C2089      C2316   1.466       .  S
N2090      C2091   1.359       .  A
C2091      N2092   1.358       .  A
C2091      C2216   1.455       .  S
N2092      C2093   1.356       .  A
C2093      N2094   1.357       .  A
C2093      C2422   1.461       .  S
C2095      N2096   1.360       .  A
C2095      N2100   1.360       .  A
C2095      C2289   1.466       .  S
N2096      C2097   1.359       .  A
C2097      N2098   1.360       .  A
C2097      C2148   1.471       .  S
N2098      C2099   1.359       .  A
C2099      N2100   1.356       .  A
C2099      C2354   1.473       .  S
C2101      N2102   1.357       .  A
C2101      N2106   1.360       .  A
C2101      C2413   1.468       .  S
N2102      C2103   1.356       .  A
C2103      N2104   1.357       .  A
C2103      C2207   1.470       .  S
N2104      C2105   1.361       .  A
C2105      N2106   1.361       .  A
C2105      C2266   1.467       .  S
C2107      N2108   1.360       .  A
C2107      N2112   1.363       .  A
C2107      C2189   1.466       .  S
N2108      C2109   1.358       .  A
C2109      N2110   1.357       .  A
C2109      C2257   1.466       .  S
N2110      C2111   1.356       .  A
C2111      N2112   1.358       .  A
C2111      C2363   1.472       .  S
C2113      N2114   1.358       .  A
C2113      N2118   1.360       .  A
C2113      C2307   1.469       .  S
N2114      C2115   1.357       .  A
C2115      N2116   1.356       .  A
C2115      C2198   1.469       .  S
N2116      C2117   1.359       .  A
C2117      N2118   1.361       .  A
C2117      C2372   1.465       .  S
C2119      N2120   1.357       .  A
C2119      N2124   1.358       .  A
C2119      C2395   1.459       .  S
N2120      C2121   1.358       .  A
C2121      N2122   1.360       .  A
C2121      C2157   1.466       .  S
N2122      C2123   1.358       .  A
C2123      N2124   1.354       .  A
C2123      C2248   1.468       .  S
O2125     Cu2133   2.083       .  S
O2125      C2135   1.284       .  A
O2126     Cu2133   2.064       .  S
O2126      C2136   1.282       .  A
O2127     Cu2133   2.070       .  S
O2127      C2137   1.285       .  A
O2128     Cu2133   2.096       .  S
O2128      C2138   1.287       .  A
O2129     Cu2134   1.941       .  S
O2129      C2138   1.271       .  A
O2130     Cu2134   1.933       .  S
O2130      C2137   1.270       .  A
O2131     Cu2134   1.939       .  S
O2131      C2136   1.272       .  A
O2132     Cu2134   1.948       .  S
O2132      C2135   1.274       .  A
Cu2133    Cu2134   2.358       .  S
C2135      C2170   1.496       .  S
C2136      C2141   1.482       .  S
C2137      C2159   1.485       .  S
C2138      C2152   1.496       .  S
C2139      C2433   1.465       .  S
C2139      C2140   1.414       .  A
C2139      C2144   1.421       .  A
C2140      C2141   1.396       .  A
C2140      H2145   1.084       .  S
C2141      C2142   1.395       .  A
C2142      C2491   1.400   1_554  A
C2142      H2494   1.086   1_554  S
C2143      C2193   1.502       .  S
C2143      C2490   1.400       .  A
C2143      C2492   1.410       .  A
C2144      C2491   1.410   1_554  A
C2144      H2147   1.082       .  S
H2146      C2490   1.086       .  S
C2148      C2149   1.422       .  A
C2148      C2153   1.418       .  A
C2149      C2498   1.408       .  A
C2149      H2154   1.083       .  S
C2150      C2200   1.509       .  S
C2150      C2497   1.408       .  A
C2150      C2499   1.406       .  A
C2151      C2498   1.406       .  A
C2151      C2152   1.401       .  A
C2151      H2503   1.085   1_554  S
C2152      C2153   1.400       .  A
C2153      H2156   1.083       .  S
H2155      C2499   1.085       .  S
C2157      C2158   1.412       .  A
C2157      C2162   1.422       .  A
C2158      C2159   1.393       .  A
C2158      H2163   1.084       .  S
C2159      C2160   1.397       .  A
C2160      C2509   1.403   1_554  A
C2160      H2512   1.084   1_554  S
C2161      C2211   1.505       .  S
C2161      C2508   1.403       .  A
C2161      C2510   1.411       .  A
C2162      C2509   1.411   1_554  A
C2162      H2165   1.083       .  S
H2164      C2508   1.084       .  S
C2166      C2327   1.463       .  S
C2166      C2167   1.414       .  A
C2166      C2171   1.421       .  A
C2167      C2516   1.399   1_554  A
C2167      H2172   1.083       .  S
C2168      C2218   1.495       .  S
C2168      C2515   1.399       .  A
C2168      C2517   1.400       .  A
C2169      C2516   1.400   1_554  A
C2169      C2170   1.396       .  A
C2169      H2521   1.083   1_554  S
C2170      C2171   1.404       .  A
C2171      H2174   1.083       .  S
H2173      C2517   1.083       .  S
O2175     Cu2183   1.949       .  S
O2175      C2185   1.273       .  A
O2176     Cu2183   1.937       .  S
O2176      C2186   1.272       .  A
O2177     Cu2183   1.935       .  S
O2177      C2187   1.271       .  A
O2178     Cu2183   1.942       .  S
O2178      C2188   1.271       .  A
O2179     Cu2184   2.092       .  S
O2179      C2188   1.286       .  A
O2180     Cu2184   2.065       .  S
O2180      C2187   1.284       .  A
O2181     Cu2184   2.062       .  S
O2181      C2186   1.282       .  A
O2182     Cu2184   2.087       .  S
O2182      C2185   1.285       .  A
Cu2183    Cu2184   2.359       .  S
C2185      C2191   1.497       .  S
C2186      C2220   1.479       .  S
C2187      C2202   1.484       .  S
C2188      C2209   1.495       .  S
C2189      C2190   1.419       .  A
C2189      C2194   1.417       .  A
C2190      C2191   1.401       .  A
C2190      H2195   1.083       .  S
C2191      C2192   1.398       .  A
C2192      C2193   1.405       .  A
C2192      H2196   1.083       .  S
C2193      C2194   1.403       .  A
C2194      H2197   1.083       .  S
C2198      C2199   1.425       .  A
C2198      C2203   1.412       .  A
C2199      C2200   1.414       .  A
C2199      H2204   1.083       .  S
C2200      C2201   1.402       .  A
C2201      C2202   1.396       .  A
C2201      H2205   1.084       .  S
C2202      C2203   1.392       .  A
C2203      H2206   1.084       .  S
C2207      C2208   1.419       .  A
C2207      C2212   1.421       .  A
C2208      C2209   1.402       .  A
C2208      H2213   1.083       .  S
C2209      C2210   1.400       .  A
C2210      C2211   1.403       .  A
C2210      H2214   1.085       .  S
C2211      C2212   1.407       .  A
C2212      H2215   1.083       .  S
C2216      C2217   1.415       .  A
C2216      C2221   1.412       .  A
C2217      C2218   1.404       .  A
C2217      H2222   1.083       .  S
C2218      C2219   1.401       .  A
C2219      C2220   1.395       .  A
C2219      H2223   1.086       .  S
C2220      C2221   1.394       .  A
C2221      H2224   1.084       .  S
O2225     Cu2233   2.074       .  S
O2225      C2235   1.283       .  A
O2226     Cu2233   2.074       .  S
O2226      C2236   1.284       .  A
O2227     Cu2233   2.094       .  S
O2227      C2237   1.287       .  A
O2228     Cu2233   2.072       .  S
O2228      C2238   1.284       .  A
O2229     Cu2234   1.930       .  S
O2229      C2238   1.270       .  A
O2230     Cu2234   1.942       .  S
O2230      C2237   1.271       .  A
O2231     Cu2234   1.947       .  S
O2231      C2236   1.272       .  A
O2232     Cu2234   1.944       .  S
O2232      C2235   1.273       .  A
Cu2233    Cu2234   2.358       .  S
C2235      C2250   1.487       .  S
C2236      C2259   1.490       .  S
C2237      C2270   1.498       .  S
C2238      C2243   1.485       .  S
C2239      C2435   1.462       .  S
C2239      C2240   1.418       .  A
C2239      C2244   1.414       .  A
C2240      H2245   1.083       .  S
C2241      C2293   1.496       .  S
C2242      C2243   1.397       .  A
C2243      C2244   1.396       .  A
C2244      H2247   1.084       .  S
C2248      C2249   1.417       .  A
C2248      C2253   1.424       .  A
C2249      C2250   1.397       .  A
C2249      H2254   1.083       .  S
C2250      C2251   1.396       .  A
C2252      C2302   1.508   1_545  S
C2253      H2256   1.083       .  S
C2257      C2258   1.415       .  A
C2257      C2262   1.417       .  A
C2258      C2259   1.398       .  A
C2258      H2263   1.084       .  S
C2259      C2260   1.398       .  A
C2261      C2309   1.498       .  S
C2262      H2265   1.083       .  S
C2266      C2267   1.418       .  A
C2266      C2271   1.419       .  A
C2267      H2272   1.083       .  S
C2268      C2320   1.501       .  S
C2269      C2270   1.400       .  A
C2270      C2271   1.402       .  A
C2271      H2274   1.083       .  S
O2275     Cu2283   2.092       .  S
O2275      C2285   1.286       .  A
O2276     Cu2283   2.072       .  S
O2276      C2286   1.284       .  A
O2277     Cu2283   2.079       .  S
O2277      C2287   1.285       .  A
O2278     Cu2283   2.073       .  S
O2278      C2288   1.284       .  A
O2279     Cu2284   1.943       .  S
O2279      C2288   1.272       .  A
O2280     Cu2284   1.947       .  S
O2280      C2287   1.272       .  A
O2281     Cu2284   1.943       .  S
O2281      C2286   1.272       .  A
O2282     Cu2284   1.952       .  S
O2282      C2285   1.273       .  A
Cu2283    Cu2284   2.356       .  S
C2285      C2291   1.500       .  S
C2286      C2318   1.487       .  S
C2287      C2311   1.491       .  S
C2288      C2300   1.489       .  S
C2289      C2290   1.420       .  A
C2289      C2294   1.414       .  A
C2290      C2291   1.405       .  A
C2290      H2295   1.083       .  S
C2291      C2292   1.401       .  A
C2292      C2293   1.404       .  A
C2292      H2296   1.084       .  S
C2293      C2294   1.400       .  A
C2294      H2297   1.083       .  S
C2298      C2325   1.468       .  S
C2298      C2299   1.416       .  A
C2298      C2303   1.423       .  A
C2299      C2300   1.395       .  A
C2299      H2304   1.084       .  S
C2300      C2301   1.395       .  A
C2301      C2302   1.404       .  A
C2301      H2305   1.084       .  S
C2302      C2303   1.410       .  A
C2303      H2306   1.083       .  S
C2307      C2308   1.417       .  A
C2307      C2312   1.417       .  A
C2308      C2309   1.406       .  A
C2308      H2313   1.083       .  S
C2309      C2310   1.402       .  A
C2310      C2311   1.400       .  A
C2310      H2314   1.085       .  S
C2311      C2312   1.402       .  A
C2312      H2315   1.083       .  S
C2316      C2317   1.414       .  A
C2316      C2321   1.419       .  A
C2317      C2318   1.397       .  A
C2317      H2322   1.084       .  S
C2318      C2319   1.397       .  A
C2319      C2320   1.402       .  A
C2319      H2323   1.085       .  S
C2320      C2321   1.409       .  A
C2321      H2324   1.082       .  S
C2325      N2326   1.356       .  A
C2325      N2330   1.361       .  A
N2326      C2327   1.357       .  A
C2327      N2328   1.360       .  A
N2328      C2329   1.358       .  A
C2329      N2330   1.361       .  A
C2329      C2404   1.475       .  S
O2331     Cu2339   1.942       .  S
O2331      C2341   1.271       .  A
O2332     Cu2339   1.944       .  S
O2332      C2342   1.272       .  A
O2333     Cu2339   1.931       .  S
O2333      C2343   1.271       .  A
O2334     Cu2339   1.942       .  S
O2334      C2344   1.271       .  A
O2335     Cu2340   2.092       .  S
O2335      C2344   1.286       .  A
O2336     Cu2340   2.067       .  S
O2336      C2343   1.283       .  A
O2337     Cu2340   2.071       .  S
O2337      C2342   1.284       .  A
O2338     Cu2340   2.078       .  S
O2338      C2341   1.285       .  A
Cu2339    Cu2340   2.357       .  S
C2341      C2367   1.489       .  S
C2342      C2358   1.488       .  S
C2343      C2347   1.482       .  S
C2344      C2376   1.497       .  S
C2345      C2431   1.456       .  S
C2345      C2346   1.413       .  A
C2345      C2350   1.414       .  A
C2346      C2347   1.396       .  A
C2346      H2351   1.083       .  S
C2347      C2348   1.397       .  A
C2349      C2397   1.491       .  S
C2350      H2353   1.083       .  S
C2354      C2355   1.429       .  A
C2354      C2359   1.414       .  A
C2355      H2360   1.083       .  S
C2356      C2408   1.518       .  S
C2357      C2358   1.395       .  A
C2358      C2359   1.393       .  A
C2359      H2362   1.084       .  S
C2363      C2364   1.423       .  A
C2363      C2368   1.415       .  A
C2364      H2369   1.083       .  S
C2365      C2417   1.506   1_455  S
C2366      C2367   1.399       .  A
C2367      C2368   1.399       .  A
C2368      H2371   1.084       .  S
C2372      C2373   1.414       .  A
C2372      C2377   1.420       .  A
C2373      H2378   1.083       .  S
C2374      C2426   1.495       .  S
C2375      C2376   1.401       .  A
C2376      C2377   1.404       .  A
C2377      H2380   1.083       .  S
O2381     Cu2389   1.936       .  S
O2381      C2391   1.271       .  A
O2382     Cu2389   1.929       .  S
O2382      C2392   1.270       .  A
O2383     Cu2389   1.949       .  S
O2383      C2393   1.271       .  A
O2384     Cu2389   1.942       .  S
O2384      C2394   1.272       .  A
O2385     Cu2390   2.080       .  S
O2385      C2394   1.284       .  A
O2386     Cu2390   2.077       .  S
O2386      C2393   1.286       .  A
O2387     Cu2390   2.070       .  S
O2387      C2392   1.284       .  A
O2388     Cu2390   2.092       .  S
O2388      C2391   1.286       .  A
Cu2389    Cu2390   2.357       .  S
C2391      C2399   1.495       .  S
C2392      C2424   1.485       .  S
C2393      C2415   1.491       .  S
C2394      C2406   1.489       .  S
C2395      C2396   1.412       .  A
C2395      C2400   1.419       .  A
C2396      C2397   1.398       .  A
C2396      H2401   1.083       .  S
C2397      C2398   1.401       .  A
C2398      C2399   1.400       .  A
C2398      H2402   1.085       .  S
C2399      C2400   1.403       .  A
C2400      H2403   1.083       .  S
C2404      C2405   1.417       .  A
C2404      C2409   1.429       .  A
C2405      C2406   1.396       .  A
C2405      H2410   1.084       .  S
C2406      C2407   1.397       .  A
C2407      C2408   1.404       .  A
C2407      H2411   1.085       .  S
C2408      C2409   1.415       .  A
C2409      H2412   1.083       .  S
C2413      C2414   1.413       .  A
C2413      C2418   1.421       .  A
C2414      C2415   1.395       .  A
C2414      H2419   1.084       .  S
C2415      C2416   1.399       .  A
C2416      C2417   1.408       .  A
C2416      H2420   1.084       .  S
C2417      C2418   1.410       .  A
C2418      H2421   1.083       .  S
C2422      C2423   1.414       .  A
C2422      C2427   1.416       .  A
C2423      C2424   1.397       .  A
C2423      H2428   1.084       .  S
C2424      C2425   1.397       .  A
C2425      C2426   1.399       .  A
C2425      H2429   1.085       .  S
C2426      C2427   1.405       .  A
C2427      H2430   1.083       .  S
C2431      N2432   1.359       .  A
C2431      N2436   1.358       .  A
N2432      C2433   1.354       .  A
C2433      N2434   1.355       .  A
N2434      C2435   1.357       .  A
C2435      N2436   1.357       .  A
C2437      N2438   1.354       .  A
C2437      N2442   1.355       .  A
C2437      C2664   1.466       .  S
N2438      C2439   1.359       .  A
C2439      N2440   1.358       .  A
C2439      C2564   1.455       .  S
N2440      C2441   1.356       .  A
C2441      N2442   1.357       .  A
C2441      C2770   1.461       .  S
C2443      N2444   1.360       .  A
C2443      N2448   1.360       .  A
C2443      C2637   1.466       .  S
N2444      C2445   1.359       .  A
C2445      N2446   1.360       .  A
C2445      C2496   1.471       .  S
N2446      C2447   1.359       .  A
C2447      N2448   1.356       .  A
C2447      C2702   1.473       .  S
C2449      N2450   1.357       .  A
C2449      N2454   1.360       .  A
C2449      C2761   1.468       .  S
N2450      C2451   1.356       .  A
C2451      N2452   1.357       .  A
C2451      C2555   1.470       .  S
N2452      C2453   1.361       .  A
C2453      N2454   1.361       .  A
C2453      C2614   1.467       .  S
C2455      N2456   1.360       .  A
C2455      N2460   1.363       .  A
C2455      C2537   1.466       .  S
N2456      C2457   1.358       .  A
C2457      N2458   1.357       .  A
C2457      C2605   1.466       .  S
N2458      C2459   1.356       .  A
C2459      N2460   1.358       .  A
C2459      C2711   1.472       .  S
C2461      N2462   1.358       .  A
C2461      N2466   1.360       .  A
C2461      C2655   1.469       .  S
N2462      C2463   1.357       .  A
C2463      N2464   1.356       .  A
C2463      C2546   1.469       .  S
N2464      C2465   1.359       .  A
C2465      N2466   1.361       .  A
C2465      C2720   1.465       .  S
C2467      N2468   1.357       .  A
C2467      N2472   1.358       .  A
C2467      C2743   1.459       .  S
N2468      C2469   1.358       .  A
C2469      N2470   1.360       .  A
C2469      C2505   1.466       .  S
N2470      C2471   1.358       .  A
C2471      N2472   1.354       .  A
C2471      C2596   1.468       .  S
O2473     Cu2481   2.083       .  S
O2473      C2483   1.284       .  A
O2474     Cu2481   2.064       .  S
O2474      C2484   1.282       .  A
O2475     Cu2481   2.070       .  S
O2475      C2485   1.285       .  A
O2476     Cu2481   2.096       .  S
O2476      C2486   1.287       .  A
O2477     Cu2482   1.941       .  S
O2477      C2486   1.271       .  A
O2478     Cu2482   1.933       .  S
O2478      C2485   1.270       .  A
O2479     Cu2482   1.939       .  S
O2479      C2484   1.272       .  A
O2480     Cu2482   1.948       .  S
O2480      C2483   1.274       .  A
Cu2481    Cu2482   2.358       .  S
C2483      C2518   1.496       .  S
C2484      C2489   1.482       .  S
C2485      C2507   1.485       .  S
C2486      C2500   1.496       .  S
C2487      C2781   1.465       .  S
C2487      C2488   1.414       .  A
C2487      C2492   1.421       .  A
C2488      C2489   1.396       .  A
C2488      H2493   1.084       .  S
C2489      C2490   1.395       .  A
C2491      C2541   1.502       .  S
C2492      H2495   1.082       .  S
C2496      C2497   1.422       .  A
C2496      C2501   1.418       .  A
C2497      H2502   1.083       .  S
C2498      C2548   1.509   1_554  S
C2499      C2500   1.401       .  A
C2500      C2501   1.400       .  A
C2501      H2504   1.083       .  S
C2505      C2506   1.412       .  A
C2505      C2510   1.422       .  A
C2506      C2507   1.393       .  A
C2506      H2511   1.084       .  S
C2507      C2508   1.397       .  A
C2509      C2559   1.505       .  S
C2510      H2513   1.083       .  S
C2514      C2675   1.463       .  S
C2514      C2515   1.414       .  A
C2514      C2519   1.421       .  A
C2515      H2520   1.083       .  S
C2516      C2566   1.495       .  S
C2517      C2518   1.396       .  A
C2518      C2519   1.404       .  A
C2519      H2522   1.083       .  S
O2523     Cu2531   1.949       .  S
O2523      C2533   1.273       .  A
O2524     Cu2531   1.937       .  S
O2524      C2534   1.272       .  A
O2525     Cu2531   1.935       .  S
O2525      C2535   1.271       .  A
O2526     Cu2531   1.942       .  S
O2526      C2536   1.271       .  A
O2527     Cu2532   2.092       .  S
O2527      C2536   1.286       .  A
O2528     Cu2532   2.065       .  S
O2528      C2535   1.284       .  A
O2529     Cu2532   2.062       .  S
O2529      C2534   1.282       .  A
O2530     Cu2532   2.087       .  S
O2530      C2533   1.285       .  A
Cu2531    Cu2532   2.359       .  S
C2533      C2539   1.497       .  S
C2534      C2568   1.479       .  S
C2535      C2550   1.484       .  S
C2536      C2557   1.495       .  S
C2537      C2538   1.419       .  A
C2537      C2542   1.417       .  A
C2538      C2539   1.401       .  A
C2538      H2543   1.083       .  S
C2539      C2540   1.398       .  A
C2540      C2541   1.405       .  A
C2540      H2544   1.083       .  S
C2541      C2542   1.403       .  A
C2542      H2545   1.083       .  S
C2546      C2547   1.425       .  A
C2546      C2551   1.412       .  A
C2547      C2548   1.414       .  A
C2547      H2552   1.083       .  S
C2548      C2549   1.402       .  A
C2549      C2550   1.396       .  A
C2549      H2553   1.084       .  S
C2550      C2551   1.392       .  A
C2551      H2554   1.084       .  S
C2555      C2556   1.419       .  A
C2555      C2560   1.421       .  A
C2556      C2557   1.402       .  A
C2556      H2561   1.083       .  S
C2557      C2558   1.400       .  A
C2558      C2559   1.403       .  A
C2558      H2562   1.085       .  S
C2559      C2560   1.407       .  A
C2560      H2563   1.083       .  S
C2564      C2565   1.415       .  A
C2564      C2569   1.412       .  A
C2565      C2566   1.405       .  A
C2565      H2570   1.083       .  S
C2566      C2567   1.401       .  A
C2567      C2568   1.395       .  A
C2567      H2571   1.086       .  S
C2568      C2569   1.394       .  A
C2569      H2572   1.084       .  S
O2573     Cu2581   2.074       .  S
O2573      C2583   1.283       .  A
O2574     Cu2581   2.074       .  S
O2574      C2584   1.284       .  A
O2575     Cu2581   2.094       .  S
O2575      C2585   1.287       .  A
O2576     Cu2581   2.072       .  S
O2576      C2586   1.284       .  A
O2577     Cu2582   1.930       .  S
O2577      C2586   1.270       .  A
O2578     Cu2582   1.942       .  S
O2578      C2585   1.271       .  A
O2579     Cu2582   1.947       .  S
O2579      C2584   1.272       .  A
O2580     Cu2582   1.944       .  S
O2580      C2583   1.273       .  A
Cu2581    Cu2582   2.358       .  S
C2583      C2598   1.487       .  S
C2584      C2607   1.490       .  S
C2585      C2618   1.498       .  S
C2586      C2591   1.485       .  S
C2587      C2783   1.462       .  S
C2587      C2588   1.418       .  A
C2587      C2592   1.414       .  A
C2588      H2593   1.083       .  S
C2589      C2641   1.496       .  S
C2590      C2591   1.397       .  A
C2591      C2592   1.396       .  A
C2592      H2595   1.084       .  S
C2596      C2597   1.417       .  A
C2596      C2601   1.424       .  A
C2597      C2598   1.397       .  A
C2597      H2602   1.083       .  S
C2598      C2599   1.396       .  A
C2600      C2650   1.508   1_545  S
C2601      H2604   1.083       .  S
C2605      C2606   1.415       .  A
C2605      C2610   1.417       .  A
C2606      C2607   1.398       .  A
C2606      H2611   1.084       .  S
C2607      C2608   1.398       .  A
C2609      C2657   1.498       .  S
C2610      H2613   1.083       .  S
C2614      C2615   1.418       .  A
C2614      C2619   1.419       .  A
C2615      H2620   1.083       .  S
C2616      C2668   1.501       .  S
C2617      C2618   1.400       .  A
C2618      C2619   1.402       .  A
C2619      H2622   1.083       .  S
O2623     Cu2631   2.092       .  S
O2623      C2633   1.286       .  A
O2624     Cu2631   2.072       .  S
O2624      C2634   1.284       .  A
O2625     Cu2631   2.079       .  S
O2625      C2635   1.285       .  A
O2626     Cu2631   2.073       .  S
O2626      C2636   1.284       .  A
O2627     Cu2632   1.943       .  S
O2627      C2636   1.272       .  A
O2628     Cu2632   1.947       .  S
O2628      C2635   1.272       .  A
O2629     Cu2632   1.943       .  S
O2629      C2634   1.272       .  A
O2630     Cu2632   1.952       .  S
O2630      C2633   1.273       .  A
Cu2631    Cu2632   2.356       .  S
C2633      C2639   1.500       .  S
C2634      C2666   1.487       .  S
C2635      C2659   1.491       .  S
C2636      C2648   1.489       .  S
C2637      C2638   1.420       .  A
C2637      C2642   1.414       .  A
C2638      C2639   1.405       .  A
C2638      H2643   1.083       .  S
C2639      C2640   1.401       .  A
C2640      C2641   1.404       .  A
C2640      H2644   1.084       .  S
C2641      C2642   1.400       .  A
C2642      H2645   1.083       .  S
C2646      C2673   1.468       .  S
C2646      C2647   1.416       .  A
C2646      C2651   1.423       .  A
C2647      C2648   1.395       .  A
C2647      H2652   1.084       .  S
C2648      C2649   1.395       .  A
C2649      C2650   1.404       .  A
C2649      H2653   1.084       .  S
C2650      C2651   1.410       .  A
C2651      H2654   1.083       .  S
C2655      C2656   1.417       .  A
C2655      C2660   1.417       .  A
C2656      C2657   1.406       .  A
C2656      H2661   1.083       .  S
C2657      C2658   1.402       .  A
C2658      C2659   1.400       .  A
C2658      H2662   1.085       .  S
C2659      C2660   1.402       .  A
C2660      H2663   1.083       .  S
C2664      C2665   1.414       .  A
C2664      C2669   1.419       .  A
C2665      C2666   1.397       .  A
C2665      H2670   1.084       .  S
C2666      C2667   1.397       .  A
C2667      C2668   1.402       .  A
C2667      H2671   1.085       .  S
C2668      C2669   1.409       .  A
C2669      H2672   1.082       .  S
C2673      N2674   1.356       .  A
C2673      N2678   1.361       .  A
N2674      C2675   1.357       .  A
C2675      N2676   1.360       .  A
N2676      C2677   1.358       .  A
C2677      N2678   1.361       .  A
C2677      C2752   1.475       .  S
O2679     Cu2687   1.942       .  S
O2679      C2689   1.271       .  A
O2680     Cu2687   1.944       .  S
O2680      C2690   1.272       .  A
O2681     Cu2687   1.931       .  S
O2681      C2691   1.271       .  A
O2682     Cu2687   1.942       .  S
O2682      C2692   1.271       .  A
O2683     Cu2688   2.092       .  S
O2683      C2692   1.286       .  A
O2684     Cu2688   2.067       .  S
O2684      C2691   1.283       .  A
O2685     Cu2688   2.071       .  S
O2685      C2690   1.284       .  A
O2686     Cu2688   2.078       .  S
O2686      C2689   1.285       .  A
Cu2687    Cu2688   2.357       .  S
C2689      C2715   1.489       .  S
C2690      C2706   1.488       .  S
C2691      C2695   1.482       .  S
C2692      C2724   1.497       .  S
C2693      C2779   1.456       .  S
C2693      C2694   1.413       .  A
C2693      C2698   1.414       .  A
C2694      C2695   1.396       .  A
C2694      H2699   1.083       .  S
C2695      C2696   1.397       .  A
C2697      C2745   1.491       .  S
C2698      H2701   1.083       .  S
C2702      C2703   1.429       .  A
C2702      C2707   1.414       .  A
C2703      H2708   1.083       .  S
C2704      C2756   1.518       .  S
C2705      C2706   1.395       .  A
C2706      C2707   1.393       .  A
C2707      H2710   1.084       .  S
C2711      C2712   1.423       .  A
C2711      C2716   1.415       .  A
C2712      H2717   1.083       .  S
C2713      C2765   1.506   1_455  S
C2714      C2715   1.399       .  A
C2715      C2716   1.399       .  A
C2716      H2719   1.084       .  S
C2720      C2721   1.414       .  A
C2720      C2725   1.420       .  A
C2721      H2726   1.083       .  S
C2722      C2774   1.495       .  S
C2723      C2724   1.401       .  A
C2724      C2725   1.404       .  A
C2725      H2728   1.083       .  S
O2729     Cu2737   1.936       .  S
O2729      C2739   1.271       .  A
O2730     Cu2737   1.929       .  S
O2730      C2740   1.270       .  A
O2731     Cu2737   1.949       .  S
O2731      C2741   1.271       .  A
O2732     Cu2737   1.942       .  S
O2732      C2742   1.272       .  A
O2733     Cu2738   2.080       .  S
O2733      C2742   1.284       .  A
O2734     Cu2738   2.077       .  S
O2734      C2741   1.286       .  A
O2735     Cu2738   2.070       .  S
O2735      C2740   1.284       .  A
O2736     Cu2738   2.092       .  S
O2736      C2739   1.286       .  A
Cu2737    Cu2738   2.357       .  S
C2739      C2747   1.495       .  S
C2740      C2772   1.485       .  S
C2741      C2763   1.491       .  S
C2742      C2754   1.489       .  S
C2743      C2744   1.412       .  A
C2743      C2748   1.419       .  A
C2744      C2745   1.398       .  A
C2744      H2749   1.083       .  S
C2745      C2746   1.401       .  A
C2746      C2747   1.400       .  A
C2746      H2750   1.085       .  S
C2747      C2748   1.403       .  A
C2748      H2751   1.083       .  S
C2752      C2753   1.417       .  A
C2752      C2757   1.429       .  A
C2753      C2754   1.396       .  A
C2753      H2758   1.084       .  S
C2754      C2755   1.397       .  A
C2755      C2756   1.404       .  A
C2755      H2759   1.085       .  S
C2756      C2757   1.415       .  A
C2757      H2760   1.083       .  S
C2761      C2762   1.413       .  A
C2761      C2766   1.421       .  A
C2762      C2763   1.395       .  A
C2762      H2767   1.084       .  S
C2763      C2764   1.399       .  A
C2764      C2765   1.408       .  A
C2764      H2768   1.084       .  S
C2765      C2766   1.410       .  A
C2766      H2769   1.083       .  S
C2770      C2771   1.414       .  A
C2770      C2775   1.416       .  A
C2771      C2772   1.397       .  A
C2771      H2776   1.084       .  S
C2772      C2773   1.397       .  A
C2773      C2774   1.399       .  A
C2773      H2777   1.085       .  S
C2774      C2775   1.405       .  A
C2775      H2778   1.083       .  S
C2779      N2780   1.359       .  A
C2779      N2784   1.358       .  A
N2780      C2781   1.354       .  A
C2781      N2782   1.355       .  A
N2782      C2783   1.357       .  A
C2783      N2784   1.357       .  A
