geometry optimzed in LAMMPS
_audit_creation_date              2020-12-01 
_audit_creation_method            'lammps2cif' 
_symmetry_space_group_name_H-M    'P1' 
_symmetry_Int_Tables_number       1 
_symmetry_cell_setting            triclinic 
loop_ 
_symmetry_equiv_pos_as_xyz 
  x,y,z 
_cell_length_a                    44.82780383 
_cell_length_b                    40.416538099033616 
_cell_length_c                    25.677170298874593 
_cell_angle_alpha                 90.20766152392453 
_cell_angle_beta                  90.00249585427737 
_cell_angle_gamma                 90.07528398093622 
loop_ 
_atom_site_label 
_atom_site_type_symbol 
_atom_site_fract_x 
_atom_site_fract_y 
_atom_site_fract_z 
_atom_site_charge 
O1          O  0.88537150  0.16447401  0.75088354    -0.57000
C2          C  0.83737395  0.15210862  0.61518544     0.75700
O3          O  0.80836014  0.09430215  0.75441065    -0.58100
C4          C  0.88196292  0.15947122  0.79915397     0.75600
C5          C  0.79274842  0.19962036  0.74809178     0.78000
Cd6        Cd  0.83449269  0.14690671  0.72696471     1.37500
O7          O  0.86038476  0.15734410  0.64273173    -0.57000
O8          O  0.81991946  0.20490645  0.73772731    -0.55800
C9          C  0.82869813  0.07590235  0.73578134     0.78000
O10         O  0.78482022  0.16952055  0.75095567    -0.58100
O11         O  0.81370921  0.14503196  0.63954479    -0.56600
O12         O  0.85675815  0.14910219  0.81412160    -0.56600
O13         O  0.85061613  0.09056696  0.71521798    -0.55700
O14         O  0.88575167  0.84529781  0.74932295    -0.57000
C15         C  0.83763698  0.85623129  0.61190902     0.75700
O16         O  0.78532286  0.83915376  0.75086704    -0.58100
C17         C  0.88189016  0.85053227  0.79748799     0.75600
C18         C  0.82865596  0.93257496  0.73254894     0.78000
Cd19       Cd  0.83471114  0.86162631  0.72388458     1.37500
O20         O  0.86026107  0.84931615  0.63945475    -0.57000
O21         O  0.85062737  0.91811551  0.71168315    -0.55800
C22         C  0.79278486  0.80906305  0.74535814     0.78000
O23         O  0.80836199  0.91400513  0.75081576    -0.58100
O24         O  0.81443069  0.86494857  0.63635393    -0.56600
O25         O  0.85640349  0.86042124  0.81169957    -0.56600
O26         O  0.81946503  0.80375156  0.73171540    -0.55700
O27         O  0.11894698  0.16448509  0.75130708    -0.57000
C28         C  0.16593684  0.15137130  0.61336751     0.75700
O29         O  0.21840774  0.17036524  0.75362221    -0.58100
C30         C  0.12274837  0.15839432  0.79916563     0.75600
C31         C  0.17494530  0.07661117  0.73123418     0.78000
Cd32       Cd  0.16943500  0.14745583  0.72496128     1.37500
O33         O  0.14384041  0.15983737  0.64121111    -0.57000
O34         O  0.15225612  0.09133881  0.71356687    -0.55800
C35         C  0.21096368  0.20030446  0.74651620     0.78000
O36         O  0.19598805  0.09487322  0.74790356    -0.58100
O37         O  0.18908874  0.14215083  0.63741399    -0.56600
O38         O  0.14806885  0.14777190  0.81291136    -0.56600
O39         O  0.18456151  0.20525400  0.73110274    -0.55700
O40         O  0.11879457  0.84597025  0.75272085    -0.57000
C41         C  0.16621144  0.85674563  0.61526642     0.75700
O42         O  0.19592889  0.91545480  0.74898751    -0.58100
C43         C  0.12247521  0.85233108  0.80058632     0.75600
C44         C  0.21174187  0.81047117  0.74931329     0.78000
Cd45       Cd  0.16953389  0.86253788  0.72682083     1.37500
O46         O  0.14412854  0.84845726  0.64322839    -0.57000
O47         O  0.18543415  0.80501456  0.73369873    -0.55800
C48         C  0.17487855  0.93346952  0.73209360     0.78000
O49         O  0.21880703  0.84057571  0.75638261    -0.58100
O50         O  0.18913043  0.86695011  0.63917256    -0.56600
O51         O  0.14781614  0.86289490  0.81455463    -0.56600
O52         O  0.15221814  0.91848438  0.71455075    -0.55700
O53         O  0.88524226  0.16449315  0.25227953    -0.57000
C54         C  0.83754333  0.15159434  0.39013857     0.75700
O55         O  0.78557013  0.16878577  0.25287553    -0.58100
C56         C  0.88174539  0.15773023  0.20447324     0.75600
C57         C  0.82941914  0.07507348  0.26898614     0.78000
Cd58       Cd  0.83494320  0.14600373  0.27842399     1.37500
O59         O  0.86045349  0.15744712  0.36268064    -0.57000
O60         O  0.85182932  0.08959424  0.28844181    -0.55800
C61         C  0.79358975  0.19880138  0.25736851     0.78000
O62         O  0.80847608  0.09354957  0.25295593    -0.58100
O63         O  0.81411518  0.14356137  0.36571678    -0.56600
O64         O  0.85673688  0.14609996  0.19073418    -0.56600
O65         O  0.82057539  0.20382180  0.26935195    -0.55700
O66         O  0.85932797  0.84845987  0.35884343    -0.57000
C67         C  0.88142977  0.84886140  0.20240832     0.75700
O68         O  0.78562569  0.83731473  0.24622921    -0.58100
C69         C  0.83700871  0.85624343  0.38659603     0.75600
C70         C  0.82908671  0.93182490  0.26463580     0.78000
Cd71       Cd  0.83425429  0.86094673  0.27469547     1.37500
O72         O  0.88538401  0.84511411  0.25083267    -0.57000
O73         O  0.85171146  0.91709547  0.28249853    -0.55800
C74         C  0.79344538  0.80745490  0.25302769     0.78000
O75         O  0.80767996  0.91352862  0.24956416    -0.58100
O76         O  0.85583490  0.85782914  0.18739111    -0.56600
O77         O  0.81398737  0.86574627  0.36240092    -0.56600
O78         O  0.82002694  0.80282432  0.26772750    -0.55700
O79         O  0.11755151  0.16190429  0.25299994    -0.57000
C80         C  0.16546129  0.15030805  0.38850079     0.75700
O81         O  0.19484950  0.09267208  0.25529306    -0.58100
C82         C  0.12153464  0.15729027  0.20471924     0.75600
C83         C  0.20942992  0.19849894  0.25422243     0.78000
Cd84       Cd  0.16837161  0.14561898  0.27723146     1.37500
O85         O  0.14304445  0.15796214  0.36097817    -0.57000
O86         O  0.18327661  0.20343463  0.27095242    -0.55800
C87         C  0.17319793  0.07459636  0.26971413     0.78000
O88         O  0.21685034  0.16855628  0.24663719    -0.58100
O89         O  0.18870020  0.14151069  0.36420504    -0.56600
O90         O  0.14710428  0.14797229  0.18998898    -0.56600
O91         O  0.15017614  0.08957047  0.28559395    -0.55700
O92         O  0.11694675  0.84459436  0.25443812    -0.57000
C93         C  0.16619556  0.85489855  0.39030781     0.75700
O94         O  0.21662363  0.83735307  0.24885005    -0.58100
C95         C  0.12090575  0.84904989  0.20614145     0.75600
C96         C  0.17352503  0.93128579  0.27155602     0.78000
Cd97       Cd  0.16822172  0.86026269  0.27882885     1.37500
O98         O  0.14371116  0.84711575  0.36290231    -0.57000
O99         O  0.15081921  0.91642831  0.28900117    -0.55800
C100        C  0.20897704  0.80736278  0.25500915     0.78000
O101        O  0.19483504  0.91309428  0.25595790    -0.58100
O102        O  0.18920579  0.86420475  0.36585624    -0.56600
O103        O  0.14654678  0.85821074  0.19153071    -0.56600
O104        O  0.18254637  0.80230036  0.27025114    -0.55700
N105        N  0.00191729  0.83761597  0.92125491    -0.32500
N106        N  0.04738927  0.83813750  0.00228985    -0.56300
N107        N  0.00152765  0.83647985  0.08131575    -0.35700
N108        N  0.95603492  0.83722315  0.00050120    -0.56300
C109        C  0.02631429  0.84554134  0.89288613     0.27800
C110        C  0.97768456  0.84486521  0.89197785     0.27800
C111        C  0.02557517  0.84450879  0.11058731     0.27800
C112        C  0.97705201  0.84410003  0.10962393     0.27800
C113        C  0.06524189  0.83495277  0.96023318     0.36500
C114        C  0.06493460  0.83400073  0.04454769     0.36500
C115        C  0.93848871  0.83336904  0.95814046     0.36500
C116        C  0.93840368  0.83244700  0.04243515     0.36500
C117        C  0.01748657  0.85737768  0.84462501    -0.21000
C118        C  0.98680770  0.85695209  0.84405720    -0.21000
C119        C  0.01628691  0.85708008  0.15822349    -0.21000
C120        C  0.98562465  0.85683511  0.15761195    -0.21000
C121        C  0.09432125  0.82873665  0.97585693    -0.22100
C122        C  0.09411480  0.82808738  0.02930957    -0.22100
C123        C  0.90951492  0.82611116  0.97322339    -0.22100
C124        C  0.90947393  0.82545662  0.02668079    -0.22100
C125        C  0.05628212  0.84102086  0.90845301    -0.17400
C126        C  0.94765194  0.83957000  0.90653455    -0.17400
C127        C  0.94729539  0.83815660  0.09436017    -0.17400
C128        C  0.05557918  0.83924706  0.09633898    -0.17400
H129        H  0.03167072  0.86543773  0.81299379     0.15500
H130        H  0.97282804  0.86462877  0.81193550     0.15500
H131        H  0.03015020  0.86544089  0.19019477     0.15500
H132        H  0.97128370  0.86494031  0.18906805     0.15500
H133        H  0.11381808  0.82596774  0.95137180     0.13800
H134        H  0.11340882  0.82480209  0.05409709     0.13800
H135        H  0.89025792  0.82256795  0.94838153     0.13800
H136        H  0.89015752  0.82140975  0.05114698     0.13800
H137        H  0.00189675  0.82485123  0.95624836     0.27000
H138        H  0.00176145  0.82313760  0.04669699     0.27000
N139        N  0.00187113  0.16947754  0.08141902    -0.35700
N140        N  0.04796385  0.16948073  0.00170848    -0.56300
N141        N  0.00243571  0.17258283  0.92149123    -0.35700
N142        N  0.95633922  0.17114650  0.00143257    -0.56300
C143        C  0.02604277  0.16170368  0.11038229     0.27800
C144        C  0.97744959  0.16232253  0.11025490     0.27800
C145        C  0.02668377  0.16474015  0.89253540     0.27800
C146        C  0.97806685  0.16562954  0.89229039     0.27800
C147        C  0.06558402  0.17221148  0.04414353     0.36500
C148        C  0.06589120  0.17331352  0.95990369     0.36500
C149        C  0.93847400  0.17390994  0.04360154     0.36500
C150        C  0.93875203  0.17537498  0.95928781     0.36500
C151        C  0.01689715  0.14978403  0.15841858    -0.21000
C152        C  0.98623391  0.15016533  0.15832924    -0.21000
C153        C  0.01761554  0.15320807  0.84411963    -0.21000
C154        C  0.98695685  0.15377095  0.84395888    -0.21000
C155        C  0.09492067  0.17770190  0.02923057    -0.22100
C156        C  0.09511312  0.17839222  0.97581384    -0.22100
C157        C  0.90933583  0.17988987  0.02817023    -0.22100
C158        C  0.90950826  0.18082008  0.97474577    -0.22100
C159        C  0.05607341  0.16667724  0.09573474    -0.17400
C160        C  0.94753261  0.16788412  0.09534485    -0.17400
C161        C  0.94806707  0.17067185  0.90729619    -0.17400
C162        C  0.05675688  0.16879403  0.90783658    -0.17400
H163        H  0.03086277  0.14180164  0.19037443     0.15500
H164        H  0.97203580  0.14252146  0.19019819     0.15500
H165        H  0.03163083  0.14510859  0.81221953     0.15500
H166        H  0.97281818  0.14617386  0.81189569     0.15500
H167        H  0.11429950  0.17999479  0.05414287     0.13800
H168        H  0.11465676  0.18131155  0.95149379     0.13800
H169        H  0.88982829  0.18228654  0.05273092     0.13800
H170        H  0.89014439  0.18403149  0.95010091     0.13800
H171        H  0.00211594  0.18236248  0.04650771     0.27000
H172        H  0.00254167  0.18505747  0.95697904     0.27000
O173        O  0.61728326  0.34587818  0.75090969    -0.57000
C174        C  0.66553037  0.35459898  0.61486922     0.75700
O175        O  0.69453503  0.41509682  0.75145292    -0.58100
C176        C  0.62154862  0.34992400  0.79926106     0.75600
C177        C  0.70970622  0.30874450  0.74839525     0.78000
Cd178      Cd  0.66843841  0.36185169  0.72624327     1.37500
O179        O  0.64267900  0.34923741  0.64268581    -0.57000
O180        O  0.68291621  0.30369045  0.73508601    -0.55800
C181        C  0.67348893  0.43326069  0.73493829     0.78000
O182        O  0.71747941  0.33878978  0.75381193    -0.58100
O183        O  0.68905527  0.36295212  0.63878236    -0.56600
O184        O  0.64722798  0.35912383  0.81365812    -0.56600
O185        O  0.65134221  0.41827822  0.71551847    -0.55700
O186        O  0.61640339  0.66478445  0.74838735    -0.57000
C187        C  0.66481203  0.65501010  0.61203391     0.75700
O188        O  0.71707064  0.67025605  0.74932222    -0.58100
C189        C  0.62063846  0.66024783  0.79660737     0.75600
C190        C  0.67311262  0.57680168  0.73265132     0.78000
Cd191      Cd  0.66750040  0.64802935  0.72338742     1.37500
O192        O  0.64174912  0.66004770  0.63950027    -0.57000
O193        O  0.65130525  0.59124883  0.71140940    -0.55800
C194        C  0.70932878  0.70039725  0.74652576     0.78000
O195        O  0.69356438  0.59543350  0.75041029    -0.58100
O196        O  0.68834115  0.64737507  0.63633470    -0.56600
O197        O  0.64617791  0.65051030  0.81058106    -0.56600
O198        O  0.68232168  0.70584436  0.73524017    -0.55700
O199        O  0.38501833  0.34378268  0.74935410    -0.57000
C200        C  0.33656051  0.35619498  0.61228372     0.75700
O201        O  0.28530162  0.33987688  0.74984791    -0.58100
C202        C  0.38218624  0.35169540  0.79686341     0.75600
C203        C  0.32988923  0.43365919  0.73128772     0.78000
Cd204      Cd  0.33473572  0.36245736  0.72429031     1.37500
O205        O  0.35991591  0.35199080  0.63935722    -0.57000
O206        O  0.35063204  0.41867086  0.70769818    -0.55800
C207        C  0.29344519  0.30980761  0.74834342     0.78000
O208        O  0.31032755  0.41556556  0.75294292    -0.58100
O209        O  0.31283466  0.36226509  0.63723241    -0.56600
O210        O  0.35758754  0.36415780  0.81083669    -0.56600
O211        O  0.32065811  0.30457289  0.73832744    -0.55700
O212        O  0.38579564  0.66572855  0.75159917    -0.57000
C213        C  0.33610000  0.65462620  0.61528981     0.75700
O214        O  0.31080297  0.59512618  0.75454033    -0.58100
C215        C  0.38236041  0.65934227  0.79947697     0.75600
C216        C  0.29439738  0.70136866  0.75139506     0.78000
Cd217      Cd  0.33509985  0.64832960  0.72694024     1.37500
O218        O  0.35913645  0.66107030  0.64222033    -0.57000
O219        O  0.32132054  0.70642810  0.73906161    -0.55800
C220        C  0.33044201  0.57708956  0.73288514     0.78000
O221        O  0.28630438  0.67132691  0.75488095    -0.58100
O222        O  0.31300625  0.64611831  0.64026991    -0.56600
O223        O  0.35734415  0.64806824  0.81366050    -0.56600
O224        O  0.35137271  0.59213678  0.70992558    -0.55700
O225        O  0.38316911  0.34426999  0.24988440    -0.57000
C226        C  0.33533838  0.35602048  0.38668096     0.75700
O227        O  0.30781521  0.41444548  0.24545238    -0.58100
C228        C  0.37971958  0.34971333  0.20174282     0.75600
C229        C  0.29106265  0.30863172  0.25132194     0.78000
Cd230      Cd  0.33242317  0.36150156  0.27447529     1.37500
O231        O  0.35830060  0.35120042  0.35883218    -0.57000
O232        O  0.31826010  0.30362620  0.26169188    -0.55800
C233        C  0.32761197  0.43260678  0.26647368     0.78000
O234        O  0.28279431  0.33864977  0.24952783    -0.58100
O235        O  0.31144118  0.36239041  0.36247638    -0.56600
O236        O  0.35448130  0.36005196  0.18705777    -0.56600
O237        O  0.34853906  0.41770740  0.28947588    -0.55700
O238        O  0.38429860  0.66421984  0.25338637    -0.57000
C239        C  0.33518279  0.65341998  0.38987255     0.75700
O240        O  0.28362024  0.66837689  0.25207925    -0.58100
C241        C  0.38146718  0.65671524  0.20571218     0.75600
C242        C  0.32798640  0.57583897  0.26911754     0.78000
Cd243      Cd  0.33333408  0.64666724  0.27767850     1.37500
O244        O  0.35817589  0.65882267  0.36238982    -0.57000
O245        O  0.34840080  0.59048462  0.29417220    -0.55800
C246        C  0.29161494  0.69850498  0.25301888     0.78000
O247        O  0.30888098  0.59418146  0.24694238    -0.58100
O248        O  0.31170221  0.64563053  0.36534208    -0.56600
O249        O  0.35659580  0.64509330  0.19132698    -0.56600
O250        O  0.31881857  0.70406065  0.26278785    -0.55700
O251        O  0.61774758  0.34123675  0.25437321    -0.57000
C252        C  0.66570256  0.35322559  0.39016299     0.75700
O253        O  0.71858882  0.33819189  0.25377572    -0.58100
C254        C  0.62079444  0.34756397  0.20641872     0.75600
C255        C  0.67384297  0.43095400  0.27243651     0.78000
Cd256      Cd  0.66847720  0.35983341  0.27884754     1.37500
O257        O  0.64280168  0.34782437  0.36240034    -0.57000
O258        O  0.65340735  0.41617682  0.29707646    -0.55800
C259        C  0.71095321  0.30800864  0.25690205     0.78000
O260        O  0.69284215  0.41267726  0.24964245    -0.58100
O261        O  0.68931373  0.36106181  0.36616946    -0.56600
O262        O  0.64562340  0.35923451  0.19199621    -0.56600
O263        O  0.68393988  0.30241687  0.26793770    -0.55700
O264        O  0.64331403  0.65889051  0.35930309    -0.57000
C265        C  0.62205465  0.65741743  0.20457157     0.75700
O266        O  0.71885078  0.66763856  0.25061020    -0.58100
C267        C  0.66602464  0.65355296  0.38743008     0.75600
C268        C  0.67384942  0.57427485  0.26985285     0.78000
Cd269      Cd  0.66918854  0.64553118  0.27652583     1.37500
O270        O  0.61807520  0.66118781  0.25301351    -0.57000
O271        O  0.65260926  0.58939343  0.29176992    -0.55800
C272        C  0.71109123  0.69778417  0.25378366     0.78000
O273        O  0.69388866  0.59224656  0.24937618    -0.58100
O274        O  0.64766841  0.64852128  0.18946870    -0.56600
O275        O  0.68964679  0.64512554  0.36391339    -0.56600
O276        O  0.68412400  0.70323233  0.26539675    -0.55700
N277        N  0.50178171  0.33806579  0.92145498    -0.35700
N278        N  0.54714736  0.33719036  0.00263999    -0.56300
N279        N  0.50079291  0.33587568  0.08173765    -0.35700
N280        N  0.45551200  0.33932168  0.00047321    -0.56300
C281        C  0.52639908  0.34472608  0.89290580     0.27800
C282        C  0.47782316  0.34567213  0.89179276     0.27800
C283        C  0.52502403  0.34222310  0.11165298     0.27800
C284        C  0.47639706  0.34343020  0.11045456     0.27800
C285        C  0.56497312  0.33338741  0.96059727     0.36500
C286        C  0.56446619  0.33228703  0.04500666     0.36500
C287        C  0.43804383  0.33618894  0.95784419     0.36500
C288        C  0.43749399  0.33531882  0.04214403     0.36500
C289        C  0.51796592  0.35622320  0.84420739    -0.21000
C290        C  0.48731656  0.35681316  0.84351479    -0.21000
C291        C  0.51588110  0.35338163  0.16024992    -0.21000
C292        C  0.48521362  0.35414503  0.15948969    -0.21000
C293        C  0.59382738  0.32616257  0.97633195    -0.22100
C294        C  0.59350492  0.32545639  0.02980681    -0.22100
C295        C  0.40873890  0.33036709  0.97250262    -0.22100
C296        C  0.40838578  0.32983038  0.02591982    -0.22100
C297        C  0.55617951  0.33921313  0.90860409    -0.17400
C298        C  0.44767038  0.34137409  0.90619902    -0.17400
C299        C  0.44641426  0.33957939  0.09443864    -0.17400
C300        C  0.55507467  0.33703734  0.09700971    -0.17400
H301        H  0.53238064  0.36331320  0.81231287     0.15500
H302        H  0.47359604  0.36445673  0.81103390     0.15500
H303        H  0.52984459  0.36028286  0.19292945     0.15500
H304        H  0.47102681  0.36173694  0.19146885     0.15500
H305        H  0.61322421  0.32250244  0.95188677     0.13800
H306        H  0.61260821  0.32116952  0.05465514     0.13800
H307        H  0.38950475  0.32753418  0.94738648     0.13800
H308        H  0.38881640  0.32651442  0.05004271     0.13800
H309        H  0.50133773  0.32572365  0.95680390     0.27000
H310        H  0.50079760  0.32389739  0.04591891     0.27000
N311        N  0.50193271  0.66979547  0.08275796    -0.35700
N312        N  0.45610026  0.66931719  0.00304247    -0.56300
N313        N  0.50199744  0.67206182  0.92265646    -0.35700
N314        N  0.54788980  0.67006756  0.00223209    -0.56300
C315        C  0.47773427  0.66295800  0.11241176     0.27800
C316        C  0.52637054  0.66358637  0.11201904     0.27800
C317        C  0.47767658  0.66509095  0.89341827     0.27800
C318        C  0.52624115  0.66526828  0.89309878     0.27800
C319        C  0.43831833  0.67202525  0.04534018     0.36500
C320        C  0.43840157  0.67346321  0.96100697     0.36500
C321        C  0.56551336  0.67373609  0.04451962     0.36500
C322        C  0.56553069  0.67450838  0.96014769     0.36500
C323        C  0.48692616  0.65289552  0.16143892    -0.21000
C324        C  0.51758868  0.65328244  0.16119860    -0.21000
C325        C  0.48656683  0.65430476  0.84447228    -0.21000
C326        C  0.51720083  0.65437933  0.84429132    -0.21000
C327        C  0.40910398  0.67772189  0.03006685    -0.22100
C328        C  0.40916002  0.67866268  0.97663990    -0.22100
C329        C  0.59459230  0.68038344  0.02920026    -0.22100
C330        C  0.59459946  0.68085100  0.97572131    -0.22100
C331        C  0.44762876  0.66685998  0.09721730    -0.17400
C332        C  0.55630825  0.66838966  0.09641886    -0.17400
C333        C  0.55624436  0.67003066  0.90808010    -0.17400
C334        C  0.44770647  0.66943183  0.90887190    -0.17400
H335        H  0.47300354  0.64610345  0.19415047     0.15500
H336        H  0.53177997  0.64685763  0.19372612     0.15500
H337        H  0.47245224  0.64709872  0.81215487     0.15500
H338        H  0.53120871  0.64726392  0.81180549     0.15500
H339        H  0.38967243  0.68027129  0.05477091     0.13800
H340        H  0.38976483  0.68197456  0.95210365     0.13800
H341        H  0.61390887  0.68385839  0.05393102     0.13800
H342        H  0.61389703  0.68472301  0.95113748     0.13800
H343        H  0.50182160  0.68121828  0.04682470     0.27000
H344        H  0.50198989  0.68406208  0.95839282     0.27000
C345        C  0.57919060  0.66590294  0.13589926    -0.12400
C346        C  0.59848695  0.66265292  0.16803306    -0.14000
C347        C  0.59708832  0.34213856  0.16969678    -0.12400
C348        C  0.57779705  0.33903252  0.13722689    -0.14000
C349        C  0.65246801  0.48560690  0.29692061    -0.12500
C350        C  0.67475198  0.46760129  0.27092106     0.09700
C351        C  0.69714440  0.48498559  0.24401901    -0.12500
C352        C  0.69711422  0.51977647  0.24328816    -0.12500
C353        C  0.67464979  0.53760795  0.26934223     0.09700
C354        C  0.65239081  0.52004560  0.29607446    -0.12500
H355        H  0.63489268  0.47306531  0.31805669     0.13600
H356        H  0.71459961  0.47173427  0.22362818     0.13600
H357        H  0.71455923  0.53267855  0.22239287     0.13600
H358        H  0.63479295  0.53294124  0.31668549     0.13600
C359        C  0.40538800  0.66102758  0.16920263    -0.12400
C360        C  0.42479877  0.66397042  0.13700659    -0.14000
C361        C  0.42325295  0.34198948  0.13364471    -0.12400
C362        C  0.40353446  0.34487534  0.16524612    -0.14000
C363        C  0.30596635  0.48704632  0.23601018    -0.12500
C364        C  0.32693460  0.46926011  0.26552308     0.09700
C365        C  0.34793941  0.48685862  0.29530333    -0.12500
C366        C  0.34802498  0.52126723  0.29598846    -0.12500
C367        C  0.32711875  0.53923668  0.26689090     0.09700
C368        C  0.30607980  0.52185398  0.23664335    -0.12500
H369        H  0.28959578  0.47410201  0.21253371     0.13600
H370        H  0.36437271  0.47400931  0.31859021     0.13600
H371        H  0.36453611  0.53381066  0.31973209     0.13600
H372        H  0.28979214  0.53511033  0.21363490     0.13600
C373        C  0.36223628  0.66260366  0.52954639    -0.12500
C374        C  0.33596583  0.65621403  0.55768486     0.09700
C375        C  0.30943025  0.65005900  0.53017848    -0.12500
C376        C  0.30921229  0.64970017  0.47580354    -0.12500
C377        C  0.33552670  0.65548418  0.44752324     0.09700
C378        C  0.36202198  0.66221804  0.47493110    -0.12500
H379        H  0.38302742  0.66736684  0.54971551     0.13600
H380        H  0.28880384  0.64510074  0.55070020     0.13600
H381        H  0.28842332  0.64448619  0.45589443     0.13600
H382        H  0.38265077  0.66673180  0.45418607     0.13600
C383        C  0.40583207  0.66436047  0.83643694    -0.12400
C384        C  0.42495838  0.66733791  0.86902533    -0.14000
C385        C  0.30972669  0.35782969  0.52711947    -0.12500
C386        C  0.33667284  0.35476714  0.55459924     0.09700
C387        C  0.36339936  0.35149527  0.52637375    -0.12500
C388        C  0.36310798  0.35151191  0.47171258    -0.12500
C389        C  0.33608377  0.35480215  0.44437524     0.09700
C390        C  0.30943979  0.35786993  0.47275746    -0.12500
H391        H  0.28875801  0.36045192  0.54766335     0.13600
H392        H  0.38452846  0.34931747  0.54650961     0.13600
H393        H  0.38402055  0.34932898  0.45088256     0.13600
H394        H  0.28825924  0.36049582  0.45291894     0.13600
C395        C  0.40587439  0.34702427  0.83359114    -0.12400
C396        C  0.42513729  0.34406689  0.86597898    -0.14000
C397        C  0.30859063  0.48798030  0.76328519    -0.12500
C398        C  0.32916659  0.47034289  0.73255696     0.09700
C399        C  0.34978935  0.48812878  0.70239782    -0.12500
C400        C  0.34995661  0.52260432  0.70281290    -0.12500
C401        C  0.32949946  0.54040281  0.73339258     0.09700
C402        C  0.30875084  0.52277856  0.76368428    -0.12500
H403        H  0.29252545  0.47491531  0.78708509     0.13600
H404        H  0.36589794  0.47537719  0.67815368     0.13600
H405        H  0.36617253  0.53534614  0.67885960     0.13600
H406        H  0.29279393  0.53585905  0.78776893     0.13600
C407        C  0.63833257  0.66302566  0.52647168    -0.12500
C408        C  0.66470141  0.65712874  0.55460391     0.09700
C409        C  0.69138618  0.65180894  0.52726496    -0.12500
C410        C  0.69169100  0.65138986  0.47308671    -0.12500
C411        C  0.66532661  0.65633568  0.44476226     0.09700
C412        C  0.63864705  0.66264060  0.47184433    -0.12500
H413        H  0.61745238  0.66726249  0.54661457     0.13600
H414        H  0.71209857  0.64735867  0.54777373     0.13600
H415        H  0.71261942  0.64664561  0.45337283     0.13600
H416        H  0.61799840  0.66659740  0.45088779     0.13600
C417        C  0.57884357  0.66826069  0.86779578    -0.12400
C418        C  0.59751566  0.66544316  0.83429840    -0.14000
C419        C  0.63839198  0.34714423  0.47519197    -0.12500
C420        C  0.66523775  0.35115659  0.44759130     0.09700
C421        C  0.69200833  0.35453356  0.47546160    -0.12500
C422        C  0.69195775  0.35486221  0.52969700    -0.12500
C423        C  0.66513635  0.35184607  0.55747813     0.09700
C424        C  0.63834183  0.34747105  0.52980727    -0.12500
H425        H  0.61742965  0.34448120  0.45462448     0.13600
H426        H  0.71307387  0.35743383  0.45532504     0.13600
H427        H  0.71298777  0.35799030  0.54990040     0.13600
H428        H  0.61734342  0.34504659  0.55030188     0.13600
C429        C  0.59827000  0.34464736  0.83653205    -0.12400
C430        C  0.57920676  0.34147907  0.86921025    -0.14000
C431        C  0.64940388  0.48756999  0.71791014    -0.12500
C432        C  0.67404142  0.46999795  0.73711691     0.09700
C433        C  0.69855942  0.48792581  0.75678704    -0.12500
C434        C  0.69848038  0.52278285  0.75617076    -0.12500
C435        C  0.67390044  0.54012699  0.73580185     0.09700
C436        C  0.64935005  0.52200808  0.71721002    -0.12500
H437        H  0.63005904  0.47467251  0.70273270     0.13600
H438        H  0.71782217  0.47505581  0.77204849     0.13600
H439        H  0.71767887  0.53609720  0.77099809     0.13600
H440        H  0.62995715  0.53446642  0.70157712     0.13600
C441        C  0.26071264  0.78534546  0.24382779    -0.12500
C442        C  0.22990774  0.77955929  0.24708588     0.09700
C443        C  0.21942420  0.74673618  0.24709717    -0.12500
C444        C  0.23944058  0.72021375  0.24615605    -0.12500
C445        C  0.27031926  0.72603993  0.24578037     0.09700
C446        C  0.28072762  0.75884765  0.24343106    -0.12500
H447        H  0.26941145  0.81035712  0.24387701     0.13600
H448        H  0.19575136  0.74154873  0.24939349     0.13600
H449        H  0.23077825  0.69521882  0.24802618     0.13600
H450        H  0.30442243  0.76409839  0.24302287     0.13600
C451        C  0.09730515  0.84433219  0.16920919    -0.12400
C452        C  0.07814137  0.84152987  0.13657708    -0.14000
C453        C  0.26105488  0.22111937  0.24221182    -0.12500
C454        C  0.23020694  0.22646536  0.24601589     0.09700
C455        C  0.21942941  0.25913515  0.24615306    -0.12500
C456        C  0.23915821  0.28595632  0.24496111    -0.12500
C457        C  0.27008275  0.28063762  0.24427345     0.09700
C458        C  0.28081746  0.24795863  0.24164795    -0.12500
H459        H  0.26997567  0.19622815  0.24203514     0.13600
H460        H  0.19571931  0.26398966  0.24872697     0.13600
H461        H  0.23023506  0.31081561  0.24694950     0.13600
H462        H  0.30456560  0.24309504  0.24087167     0.13600
C463        C  0.07865604  0.16438135  0.13572342    -0.12400
C464        C  0.09795112  0.16182834  0.16800243    -0.14000
C465        C  0.14932608  0.02018202  0.28726449    -0.12500
C466        C  0.17414349  0.03794569  0.26908096     0.09700
C467        C  0.19928930  0.02032476  0.25156850    -0.12500
C468        C  0.19939903  0.98553033  0.25206797    -0.12500
C469        C  0.17437757  0.96793896  0.27016935     0.09700
C470        C  0.14944908  0.98574648  0.28782248    -0.12500
H471        H  0.12964068  0.03291040  0.30130303     0.13600
H472        H  0.21878977  0.03339548  0.23758379     0.13600
H473        H  0.21897261  0.97244322  0.23842348     0.13600
H474        H  0.12983373  0.97304978  0.30220543     0.13600
C475        C  0.72190398  0.75805314  0.24147843    -0.12500
C476        C  0.73237298  0.72542274  0.24658976     0.09700
C477        C  0.76323260  0.71990489  0.24922999    -0.12500
C478        C  0.78313850  0.74659514  0.24946247    -0.12500
C479        C  0.77260412  0.77931211  0.24637772     0.09700
C480        C  0.74183716  0.78472820  0.24104833    -0.12500
H481        H  0.69820836  0.76303543  0.23919493     0.13600
H482        H  0.77192326  0.69506259  0.25336191     0.13600
H483        H  0.80676099  0.74164166  0.25350795     0.13600
H484        H  0.73307765  0.80963531  0.23863446     0.13600
C485        C  0.92435929  0.84038695  0.13375129    -0.12400
C486        C  0.90500743  0.84355061  0.16583269    -0.14000
C487        C  0.74184526  0.22111686  0.24619720    -0.12500
C488        C  0.77262367  0.22674880  0.25091650     0.09700
C489        C  0.78312865  0.25955539  0.25311279    -0.12500
C490        C  0.76319158  0.28615716  0.25250076    -0.12500
C491        C  0.73233530  0.28045179  0.25025073     0.09700
C492        C  0.72189938  0.24770384  0.24607948    -0.12500
H493        H  0.73309982  0.19614649  0.24444638     0.13600
H494        H  0.80676160  0.26467304  0.25669925     0.13600
H495        H  0.77186100  0.31109467  0.25592375     0.13600
H496        H  0.69820689  0.24257220  0.24411080     0.13600
C497        C  0.90523109  0.16256736  0.16727815    -0.12400
C498        C  0.92461081  0.16543375  0.13501586    -0.14000
C499        C  0.85394701  0.98608130  0.27835155    -0.12500
C500        C  0.82839962  0.96847257  0.26289958     0.09700
C501        C  0.80281208  0.98626762  0.24811904    -0.12500
C502        C  0.80287217  0.02108607  0.24948002    -0.12500
C503        C  0.82849738  0.03846725  0.26570505     0.09700
C504        C  0.85397635  0.02047981  0.27983940    -0.12500
H505        H  0.87406849  0.97324329  0.28989795     0.13600
H506        H  0.78276426  0.97332902  0.23619297     0.13600
H507        H  0.78288763  0.03434664  0.23844262     0.13600
H508        H  0.87412613  0.03300820  0.29235101     0.13600
C509        C  0.28384691  0.76205877  0.76099784    -0.12500
C510        C  0.27336924  0.72923178  0.75852832     0.09700
C511        C  0.24250747  0.72351931  0.75783758    -0.12500
C512        C  0.22254895  0.75004001  0.75670616    -0.12500
C513        C  0.23298093  0.78286883  0.75697466     0.09700
C514        C  0.26381528  0.78865127  0.76057212    -0.12500
H515        H  0.30756239  0.76720397  0.76167062     0.13600
H516        H  0.23378840  0.69854691  0.75578367     0.13600
H517        H  0.19889343  0.74480782  0.75417531     0.13600
H518        H  0.27249343  0.81367285  0.76081020     0.13600
C519        C  0.13963767  0.84681359  0.53018637    -0.12500
C520        C  0.16573415  0.85502311  0.55775453     0.09700
C521        C  0.19182175  0.86235889  0.52981128    -0.12500
C522        C  0.19189084  0.86177144  0.47558135    -0.12500
C523        C  0.16585037  0.85389286  0.44782318     0.09700
C524        C  0.13969898  0.84625714  0.47556513    -0.12500
H525        H  0.11917926  0.84117868  0.55077019     0.13600
H526        H  0.21229234  0.86875556  0.54988482     0.13600
H527        H  0.21238756  0.86778807  0.45537070     0.13600
H528        H  0.11926905  0.84024295  0.45508771     0.13600
C529        C  0.07936823  0.84455384  0.86940573    -0.12400
C530        C  0.09889053  0.84789303  0.83759436    -0.14000
C531        C  0.22147509  0.26098339  0.75139325    -0.12500
C532        C  0.23194206  0.22823753  0.75387795     0.09700
C533        C  0.26268315  0.22269995  0.75950720    -0.12500
C534        C  0.28266691  0.24936330  0.75984433    -0.12500
C535        C  0.27223705  0.28205494  0.75521259     0.09700
C536        C  0.24139628  0.28761285  0.75233544    -0.12500
H537        H  0.19787493  0.26603012  0.74724211     0.13600
H538        H  0.27137657  0.19774782  0.76151900     0.13600
H539        H  0.30635182  0.24433661  0.76221631     0.13600
H540        H  0.23271786  0.31248227  0.74855070     0.13600
C541        C  0.19093575  0.14311455  0.52788175    -0.12500
C542        C  0.16517191  0.15173355  0.55584223     0.09700
C543        C  0.13910235  0.15992579  0.52831753    -0.12500
C544        C  0.13898026  0.15961763  0.47369917    -0.12500
C545        C  0.16493536  0.15114830  0.44597250     0.09700
C546        C  0.19081990  0.14282725  0.47368695    -0.12500
H547        H  0.21133091  0.13652476  0.54791009     0.13600
H548        H  0.11885958  0.16642471  0.54894528     0.13600
H549        H  0.11864933  0.16590354  0.45323471     0.13600
H550        H  0.21112478  0.13602513  0.45347577     0.13600
C551        C  0.07972113  0.16597469  0.86832383    -0.12400
C552        C  0.09923975  0.16296525  0.83636139    -0.14000
C553        C  0.19922147  0.02255905  0.75632211    -0.12500
C554        C  0.17613934  0.04000713  0.73151573     0.09700
C555        C  0.15340456  0.02211445  0.70642558    -0.12500
C556        C  0.15336874  0.98768834  0.70665766    -0.12500
C557        C  0.17607604  0.97007032  0.73196676     0.09700
C558        C  0.19918862  0.98778065  0.75654645    -0.12500
H559        H  0.21706259  0.03574945  0.77585684     0.13600
H560        H  0.13544067  0.03474142  0.68651368     0.13600
H561        H  0.13538273  0.97484739  0.68691744     0.13600
H562        H  0.21700981  0.97479516  0.77624129     0.13600
C563        C  0.76156707  0.72206611  0.75278363    -0.12500
C564        C  0.73073018  0.72798389  0.75358521     0.09700
C565        C  0.72051843  0.76084658  0.75647814    -0.12500
C566        C  0.74071637  0.78729569  0.75623642    -0.12500
C567        C  0.77150308  0.78138759  0.75254660     0.09700
C568        C  0.78173570  0.74849879  0.75194926    -0.12500
H569        H  0.77008624  0.69704034  0.75051216     0.13600
H570        H  0.69684863  0.76615649  0.75735849     0.13600
H571        H  0.73217982  0.81234911  0.75681654     0.13600
H572        H  0.80535992  0.74316896  0.74936858     0.13600
C573        C  0.81239758  0.86480049  0.52664979    -0.12500
C574        C  0.83784988  0.85479037  0.55427784     0.09700
C575        C  0.86308870  0.84423601  0.52627036    -0.12500
C576        C  0.86289370  0.84422139  0.47159333    -0.12500
C577        C  0.83747997  0.85480800  0.44418602     0.09700
C578        C  0.81221538  0.86481842  0.47238562    -0.12500
H579        H  0.79257833  0.87303928  0.54700169     0.13600
H580        H  0.88298835  0.83627717  0.54656245     0.13600
H581        H  0.88265848  0.83625567  0.45082103     0.13600
H582        H  0.79226981  0.87305230  0.45249759     0.13600
C583        C  0.90543002  0.84574442  0.83460601    -0.12400
C584        C  0.92479327  0.84253162  0.86682558    -0.14000
C585        C  0.74054609  0.22149260  0.75393878    -0.12500
C586        C  0.77142475  0.22731783  0.75447636     0.09700
C587        C  0.78177453  0.26015376  0.75733191    -0.12500
C588        C  0.76168448  0.28664791  0.75787840    -0.12500
C589        C  0.73083900  0.28087093  0.75491498     0.09700
C590        C  0.72046759  0.24799277  0.75389012    -0.12500
H591        H  0.73191345  0.19649090  0.75159920     0.13600
H592        H  0.80546721  0.26541899  0.75787791     0.13600
H593        H  0.77034437  0.31167153  0.75858125     0.13600
H594        H  0.69680513  0.24273768  0.75166689     0.13600
C595        C  0.86400217  0.16088358  0.53001544    -0.12500
C596        C  0.83772564  0.15365794  0.55765018     0.09700
C597        C  0.81143951  0.14703167  0.52973920    -0.12500
C598        C  0.81146381  0.14693954  0.47546788    -0.12500
C599        C  0.83777794  0.15347504  0.44766306     0.09700
C600        C  0.86401942  0.16082332  0.47539715    -0.12500
H601        H  0.88456775  0.16617250  0.55056235     0.13600
H602        H  0.79080646  0.14147860  0.54985665     0.13600
H603        H  0.79084939  0.14132044  0.45526942     0.13600
H604        H  0.88460134  0.16604919  0.45492261     0.13600
C605        C  0.90573277  0.16491676  0.83556683    -0.12400
C606        C  0.92522344  0.16821351  0.86751812    -0.14000
C607        C  0.85087888  0.02160374  0.71269998    -0.12500
C608        C  0.82762654  0.03923481  0.73661152     0.09700
C609        C  0.80408520  0.02144874  0.75969022    -0.12500
C610        C  0.80404167  0.98660144  0.75871453    -0.12500
C611        C  0.82752909  0.96921323  0.73464083     0.09700
C612        C  0.85082288  0.98722505  0.71170142    -0.12500
H613        H  0.86931133  0.03440209  0.69435142     0.13600
H614        H  0.78582117  0.03440545  0.77830960     0.13600
H615        H  0.78576670  0.97332756  0.77668364     0.13600
H616        H  0.86922610  0.97473336  0.69269408     0.13600
loop_ 
_geom_bond_atom_site_label_1 
_geom_bond_atom_site_label_2 
_geom_bond_distance 
_geom_bond_site_symmetry_2 
_ccdc_geom_bond_type 
O1            C4   1.266       .  A
O1           Cd6   2.465       .  S
C2           O11   1.265       .  A
C2            O7   1.268       .  A
C2          C596   1.479       .  S
O3            C9   1.270       .  A
O3           Cd6   2.529       .  S
C4           O12   1.265       .  A
C4          C605   1.434       .  S
C5           O10   1.269       .  A
C5            O8   1.265       .  A
C5          C586   1.482       .  S
Cd6          O13   2.408       .  S
Cd6          O12   2.452       .  S
Cd6          O11   2.431       .  S
Cd6           O7   2.492       .  S
Cd6          O10   2.485       .  S
Cd6           O8   2.449       .  S
C9           O13   1.263       .  A
C9          C608   1.483       .  S
O14          C17   1.266       .  A
O14         Cd19   2.471       .  S
C15          O24   1.265       .  A
C15          O20   1.268       .  A
C15         C574   1.481       .  S
O16          C22   1.269       .  A
O16         Cd19   2.491       .  S
C17          O25   1.264       .  A
C17         C583   1.436       .  S
C18          O23   1.270       .  A
C18          O21   1.264       .  A
C18         C611   1.482       .  S
Cd19         O26   2.445       .  S
Cd19         O25   2.456       .  S
Cd19         O24   2.429       .  S
Cd19         O20   2.501       .  S
Cd19         O23   2.520       .  S
Cd19         O21   2.413       .  S
C22          O26   1.265       .  A
C22         C567   1.481       .  S
O27          C30   1.266       .  A
O27         Cd32   2.461       .  S
C28          O37   1.265       .  A
C28          O33   1.268       .  A
C28         C542   1.478       .  S
O29          C35   1.269       .  A
O29         Cd32   2.492       .  S
C30          O38   1.265       .  A
C30         C552   1.434       .  S
C31          O36   1.270       .  A
C31          O34   1.264       .  A
C31         C554   1.480       .  S
Cd32         O39   2.436       .  S
Cd32         O38   2.453       .  S
Cd32         O37   2.423       .  S
Cd32         O33   2.490       .  S
Cd32         O36   2.509       .  S
Cd32         O34   2.411       .  S
C35          O39   1.264       .  A
C35         C532   1.480       .  S
O40          C43   1.265       .  A
O40         Cd45   2.462       .  S
C41          O50   1.265       .  A
C41          O46   1.268       .  A
C41         C520   1.478       .  S
O42          C48   1.270       .  A
O42         Cd45   2.507       .  S
C43          O51   1.264       .  A
C43         C530   1.433       .  S
C44          O49   1.269       .  A
C44          O47   1.264       .  A
C44         C513   1.481       .  S
Cd45         O52   2.413       .  S
Cd45         O51   2.454       .  S
Cd45         O50   2.423       .  S
Cd45         O46   2.493       .  S
Cd45         O49   2.501       .  S
Cd45         O47   2.440       .  S
C48          O52   1.264       .  A
C48         C557   1.480       .  S
O53          C56   1.266       .  A
O53         Cd58   2.468       .  S
C54          O63   1.265       .  A
C54          O59   1.268       .  A
C54         C599   1.479       .  S
O55          C61   1.270       .  A
O55         Cd58   2.487       .  S
C56          O64   1.265       .  A
C56         C497   1.435       .  S
C57          O62   1.270       .  A
C57          O60   1.265       .  A
C57         C503   1.482       .  S
Cd58         O65   2.437       .  S
Cd58         O64   2.454       .  S
Cd58         O63   2.430       .  S
Cd58         O59   2.489       .  S
Cd58         O62   2.513       .  S
Cd58         O60   2.418       .  S
C61          O65   1.264       .  A
C61         C488   1.480       .  S
O66          C69   1.268       .  A
O66         Cd71   2.489       .  S
C67          O76   1.264       .  A
C67          O72   1.266       .  A
C67         C486   1.430       .  S
O68          C74   1.270       .  A
O68         Cd71   2.488       .  S
C69          O77   1.265       .  A
C69         C577   1.480       .  S
C70          O75   1.270       .  A
C70          O73   1.264       .  A
C70         C500   1.482       .  S
Cd71         O78   2.439       .  S
Cd71         O77   2.436       .  S
Cd71         O76   2.444       .  S
Cd71         O72   2.458       .  S
Cd71         O75   2.524       .  S
Cd71         O73   2.407       .  S
C74          O78   1.264       .  A
C74         C479   1.480       .  S
O79          C82   1.266       .  A
O79         Cd84   2.453       .  S
C80          O89   1.265       .  A
C80          O85   1.268       .  A
C80         C545   1.476       .  S
O81          C87   1.270       .  A
O81         Cd84   2.511       .  S
C82          O90   1.264       .  A
C82         C464   1.429       .  S
C83          O88   1.270       .  A
C83          O86   1.264       .  A
C83         C454   1.479       .  S
Cd84         O91   2.417       .  S
Cd84         O90   2.437       .  S
Cd84         O89   2.418       .  S
Cd84         O85   2.481       .  S
Cd84         O88   2.490       .  S
Cd84         O86   2.435       .  S
C87          O91   1.264       .  A
C87         C466   1.482       .  S
O92          C95   1.266       .  A
O92         Cd97   2.464       .  S
C93         O102   1.265       .  A
C93          O98   1.268       .  A
C93         C523   1.478       .  S
O94         C100   1.270       .  A
O94         Cd97   2.482       .  S
C95         O103   1.264       .  A
C95         C451   1.433       .  S
C96         O101   1.270       .  A
C96          O99   1.264       .  A
C96         C469   1.482       .  S
Cd97        O104   2.439       .  S
Cd97        O103   2.444       .  S
Cd97        O102   2.429       .  S
Cd97         O98   2.481       .  S
Cd97        O101   2.516       .  S
Cd97         O99   2.415       .  S
C100        O104   1.264       .  A
C100        C442   1.478       .  S
N105        C110   1.354   1_455  A
N105        C109   1.353       .  A
N105        H137   1.038       .  S
N106        C113   1.350   1_554  A
N106        C114   1.351       .  A
N107        C112   1.351   1_455  A
N107        C111   1.353       .  A
N107        H138   1.038       .  S
N108        C115   1.351   1_554  A
N108        C116   1.350       .  A
C109        C117   1.388       .  A
C109        C125   1.414       .  A
C110        C126   1.413       .  A
C110        C118   1.387       .  A
C111        C119   1.387       .  A
C111        C128   1.410       .  A
C112        C127   1.410       .  A
C112        C120   1.388       .  A
C113        C125   1.411       .  A
C113        C121   1.387       .  A
C114        C128   1.410       .  A
C114        C122   1.386       .  A
C115        C123   1.387       .  A
C115        C126   1.411       .  A
C116        C124   1.387       .  A
C116        C127   1.410       .  A
C117        C118   1.375   1_455  A
C117        H129   1.082       .  S
C118        H130   1.082       .  S
C119        C120   1.375   1_455  A
C119        H131   1.082       .  S
C120        H132   1.082       .  S
C121        C122   1.373   1_556  A
C121        H133   1.082       .  S
C122        H134   1.082       .  S
C123        C124   1.373   1_556  A
C123        H135   1.082       .  S
C124        H136   1.082       .  S
C125        C529   1.448       .  S
C126        C584   1.451       .  S
C127        C485   1.445       .  S
C128        C452   1.448       .  S
N139        C144   1.353   1_455  A
N139        C143   1.352       .  A
N139        H171   1.038       .  S
N140        C147   1.350       .  A
N140        C148   1.350   1_554  A
N141        C146   1.354   1_455  A
N141        C145   1.354       .  A
N141        H172   1.040       .  S
N142        C149   1.351       .  A
N142        C150   1.350   1_554  A
C143        C151   1.388       .  A
C143        C159   1.412       .  A
C144        C160   1.413       .  A
C144        C152   1.387       .  A
C145        C153   1.387       .  A
C145        C162   1.413       .  A
C146        C161   1.414       .  A
C146        C154   1.387       .  A
C147        C159   1.410       .  A
C147        C155   1.388       .  A
C148        C162   1.409       .  A
C148        C156   1.387       .  A
C149        C157   1.387       .  A
C149        C160   1.411       .  A
C150        C158   1.387       .  A
C150        C161   1.411       .  A
C151        C152   1.375   1_455  A
C151        H163   1.082       .  S
C152        H164   1.082       .  S
C153        C154   1.375   1_455  A
C153        H165   1.082       .  S
C154        H166   1.082       .  S
C155        C156   1.372   1_554  A
C155        H167   1.082       .  S
C156        H168   1.082       .  S
C157        C158   1.372   1_554  A
C157        H169   1.082       .  S
C158        H170   1.082       .  S
C159        C463   1.445       .  S
C160        C498   1.450       .  S
C161        C606   1.449       .  S
C162        C551   1.450       .  S
O173        C176   1.266       .  A
O173       Cd178   2.465       .  S
C174        O183   1.265       .  A
C174        O179   1.268       .  A
C174        C423   1.478       .  S
O175        C181   1.270       .  A
O175       Cd178   2.530       .  S
C176        O184   1.264       .  A
C176        C429   1.432       .  S
C177        O182   1.270       .  A
C177        O180   1.265       .  A
C177        C589   1.483       .  S
Cd178       O185   2.423       .  S
Cd178       O184   2.440       .  S
Cd178       O183   2.429       .  S
Cd178       O179   2.487       .  S
Cd178       O182   2.493       .  S
Cd178       O180   2.451       .  S
C181        O185   1.264       .  A
C181        C432   1.486       .  S
O186        C189   1.267       .  A
O186       Cd191   2.474       .  S
C187        O196   1.265       .  A
C187        O192   1.268       .  A
C187        C408   1.477       .  S
O188        C194   1.269       .  A
O188       Cd191   2.486       .  S
C189        O197   1.264       .  A
C189        C418   1.433       .  S
C190        O195   1.269       .  A
C190        O193   1.264       .  A
C190        C435   1.485       .  S
Cd191       O198   2.446       .  S
Cd191       O197   2.436       .  S
Cd191       O196   2.423       .  S
Cd191       O192   2.493       .  S
Cd191       O195   2.526       .  S
Cd191       O193   2.425       .  S
C194        O198   1.265       .  A
C194        C564   1.481       .  S
O199        C202   1.266       .  A
O199       Cd204   2.464       .  S
C200        O209   1.265       .  A
C200        O205   1.269       .  A
C200        C386   1.482       .  S
O201        C207   1.270       .  A
O201       Cd204   2.485       .  S
C202        O210   1.264       .  A
C202        C395   1.433       .  S
C203        O208   1.271       .  A
C203        O206   1.264       .  A
C203        C398   1.483       .  S
Cd204       O211   2.450       .  S
Cd204       O210   2.448       .  S
Cd204       O209   2.441       .  S
Cd204       O205   2.491       .  S
Cd204       O208   2.518       .  S
Cd204       O206   2.419       .  S
C207        O211   1.265       .  A
C207        C535   1.480       .  S
O212        C215   1.266       .  A
O212       Cd217   2.460       .  S
C213        O222   1.266       .  A
C213        O218   1.269       .  A
C213        C374   1.481       .  S
O214        C220   1.271       .  A
O214       Cd217   2.513       .  S
C215        O223   1.264       .  A
C215        C383   1.431       .  S
C216        O221   1.270       .  A
C216        O219   1.264       .  A
C216        C510   1.480       .  S
Cd217       O224   2.424       .  S
Cd217       O223   2.440       .  S
Cd217       O222   2.437       .  S
Cd217       O218   2.483       .  S
Cd217       O221   2.483       .  S
Cd217       O219   2.448       .  S
C220        O224   1.264       .  A
C220        C401   1.483       .  S
O225        C228   1.266       .  A
O225       Cd230   2.462       .  S
C226        O235   1.266       .  A
C226        O231   1.268       .  A
C226        C389   1.483       .  S
O227        C233   1.270       .  A
O227       Cd230   2.524       .  S
C228        O236   1.265       .  A
C228        C362   1.434       .  S
C229        O234   1.270       .  A
C229        O232   1.265       .  A
C229        C457   1.481       .  S
Cd230       O237   2.412       .  S
Cd230       O236   2.453       .  S
Cd230       O235   2.448       .  S
Cd230       O231   2.494       .  S
Cd230       O234   2.491       .  S
Cd230       O232   2.444       .  S
C233        O237   1.263       .  A
C233        C364   1.482       .  S
O238        C241   1.266       .  A
O238       Cd243   2.472       .  S
C239        O248   1.265       .  A
C239        O244   1.268       .  A
C239        C377   1.482       .  S
O240        C246   1.269       .  A
O240       Cd243   2.485       .  S
C241        O249   1.264       .  A
C241        C359   1.435       .  S
C242        O247   1.270       .  A
C242        O245   1.264       .  A
C242        C367   1.481       .  S
Cd243       O250   2.441       .  S
Cd243       O249   2.451       .  S
Cd243       O248   2.451       .  S
Cd243       O244   2.491       .  S
Cd243       O247   2.511       .  S
Cd243       O245   2.409       .  S
C246        O250   1.265       .  A
C246        C445   1.479       .  S
O251        C254   1.266       .  A
O251       Cd256   2.475       .  S
C252        O261   1.265       .  A
C252        O257   1.268       .  A
C252        C420   1.477       .  S
O253        C259   1.269       .  A
O253       Cd256   2.495       .  S
C254        O262   1.264       .  A
C254        C347   1.437       .  S
C255        O260   1.270       .  A
C255        O258   1.264       .  A
C255        C350   1.482       .  S
Cd256       O263   2.438       .  S
Cd256       O262   2.454       .  S
Cd256       O261   2.429       .  S
Cd256       O257   2.484       .  S
Cd256       O260   2.514       .  S
Cd256       O258   2.420       .  S
C259        O263   1.264       .  A
C259        C491   1.480       .  S
O264        C267   1.267       .  A
O264       Cd269   2.480       .  S
C265        O274   1.264       .  A
C265        O270   1.265       .  A
C265        C346   1.429       .  S
O266        C272   1.270       .  A
O266       Cd269   2.489       .  S
C267        O275   1.265       .  A
C267        C411   1.476       .  S
C268        O273   1.270       .  A
C268        O271   1.263       .  A
C268        C353   1.482       .  S
Cd269       O276   2.443       .  S
Cd269       O275   2.424       .  S
Cd269       O274   2.438       .  S
Cd269       O270   2.454       .  S
Cd269       O273   2.519       .  S
Cd269       O271   2.420       .  S
C272        O276   1.265       .  A
C272        C476   1.480       .  S
N277        C282   1.353       .  A
N277        C281   1.352       .  A
N277        H309   1.037       .  S
N278        C285   1.352   1_554  A
N278        C286   1.352       .  A
N279        C284   1.354       .  A
N279        C283   1.354       .  A
N279        H310   1.038       .  S
N280        C287   1.351   1_554  A
N280        C288   1.351       .  A
C281        C289   1.388       .  A
C281        C297   1.413       .  A
C282        C298   1.412       .  A
C282        C290   1.387       .  A
C283        C291   1.387       .  A
C283        C300   1.414       .  A
C284        C299   1.414       .  A
C284        C292   1.387       .  A
C285        C297   1.413       .  A
C285        C293   1.387       .  A
C286        C300   1.413       .  A
C286        C294   1.387       .  A
C287        C295   1.387       .  A
C287        C298   1.411       .  A
C288        C296   1.387       .  A
C288        C299   1.411       .  A
C289        C290   1.374       .  A
C289        H301   1.082       .  S
C290        H302   1.082       .  S
C291        C292   1.375       .  A
C291        H303   1.082       .  S
C292        H304   1.082       .  S
C293        C294   1.374   1_556  A
C293        H305   1.082       .  S
C294        H306   1.082       .  S
C295        C296   1.372   1_556  A
C295        H307   1.082       .  S
C296        H308   1.082       .  S
C297        C430   1.448       .  S
C298        C396   1.449       .  S
C299        C361   1.449       .  S
C300        C348   1.452       .  S
N311        C316   1.353       .  A
N311        C315   1.354       .  A
N311        H343   1.033       .  S
N312        C319   1.351       .  A
N312        C320   1.351   1_554  A
N313        C318   1.353       .  A
N313        C317   1.352       .  A
N313        H344   1.036       .  S
N314        C321   1.350       .  A
N314        C322   1.351   1_554  A
C315        C323   1.387       .  A
C315        C331   1.414       .  A
C316        C332   1.414       .  A
C316        C324   1.388       .  A
C317        C325   1.387       .  A
C317        C334   1.412       .  A
C318        C333   1.412       .  A
C318        C326   1.387       .  A
C319        C331   1.412       .  A
C319        C327   1.387       .  A
C320        C334   1.411       .  A
C320        C328   1.387       .  A
C321        C329   1.388       .  A
C321        C332   1.412       .  A
C322        C330   1.386       .  A
C322        C333   1.411       .  A
C323        C324   1.375       .  A
C323        H335   1.082       .  S
C324        H336   1.082       .  S
C325        C326   1.373       .  A
C325        H337   1.082       .  S
C326        H338   1.082       .  S
C327        C328   1.373   1_554  A
C327        H339   1.082       .  S
C328        H340   1.082       .  S
C329        C330   1.373   1_554  A
C329        H341   1.082       .  S
C330        H342   1.082       .  S
C331        C360   1.451       .  S
C332        C345   1.446       .  S
C333        C417   1.450       .  S
C334        C384   1.447       .  S
C345        C346   1.203       .  T
C347        C348   1.207       .  T
C349        C350   1.404       .  A
C349        C354   1.392       .  A
C349        H355   1.083       .  S
C350        C351   1.407       .  A
C351        C352   1.406       .  A
C351        H356   1.083       .  S
C352        C353   1.407       .  A
C352        H357   1.083       .  S
C353        C354   1.404       .  A
C354        H358   1.083       .  S
C359        C360   1.206       .  T
C361        C362   1.205       .  T
C363        C364   1.407       .  A
C363        C368   1.407       .  A
C363        H369   1.083       .  S
C364        C365   1.404       .  A
C365        C366   1.391       .  A
C365        H370   1.083       .  S
C366        C367   1.403       .  A
C366        H371   1.083       .  S
C367        C368   1.407       .  A
C368        H372   1.083       .  S
C373        C374   1.406       .  A
C373        C378   1.402       .  A
C373        H379   1.083       .  S
C374        C375   1.405       .  A
C375        C376   1.396       .  A
C375        H380   1.083       .  S
C376        C377   1.405       .  A
C376        H381   1.083       .  S
C377        C378   1.406       .  A
C378        H382   1.083       .  S
C383        C384   1.204       .  T
C385        C386   1.405       .  A
C385        C390   1.396       .  A
C385        H391   1.083       .  S
C386        C387   1.406       .  A
C387        C388   1.404       .  A
C387        H392   1.083       .  S
C388        C389   1.407       .  A
C388        H393   1.083       .  S
C389        C390   1.405       .  A
C390        H394   1.083       .  S
C395        C396   1.205       .  T
C397        C398   1.407       .  A
C397        C402   1.406       .  A
C397        H403   1.083       .  S
C398        C399   1.405       .  A
C399        C400   1.393       .  A
C399        H404   1.083       .  S
C400        C401   1.405       .  A
C400        H405   1.083       .  S
C401        C402   1.407       .  A
C402        H406   1.083       .  S
C407        C408   1.406       .  A
C407        C412   1.403       .  A
C407        H413   1.083       .  S
C408        C409   1.403       .  A
C409        C410   1.391       .  A
C409        H414   1.083       .  S
C410        C411   1.403       .  A
C410        H415   1.083       .  S
C411        C412   1.407       .  A
C412        H416   1.083       .  S
C417        C418   1.205       .  T
C419        C420   1.406       .  A
C419        C424   1.402       .  A
C419        H425   1.083       .  S
C420        C421   1.403       .  A
C421        C422   1.393       .  A
C421        H426   1.083       .  S
C422        C423   1.403       .  A
C422        H427   1.083       .  S
C423        C424   1.406       .  A
C424        H428   1.083       .  S
C429        C430   1.205       .  T
C431        C432   1.404       .  A
C431        C436   1.392       .  A
C431        H437   1.083       .  S
C432        C433   1.408       .  A
C433        C434   1.409       .  A
C433        H438   1.083       .  S
C434        C435   1.408       .  A
C434        H439   1.083       .  S
C435        C436   1.404       .  A
C436        H440   1.083       .  S
C441        C442   1.403       .  A
C441        C446   1.398       .  A
C441        H447   1.083       .  S
C442        C443   1.407       .  A
C443        C444   1.399       .  A
C443        H448   1.083       .  S
C444        C445   1.404       .  A
C444        H449   1.083       .  S
C445        C446   1.407       .  A
C446        H450   1.083       .  S
C451        C452   1.205       .  T
C453        C454   1.403       .  A
C453        C458   1.400       .  A
C453        H459   1.083       .  S
C454        C455   1.407       .  A
C455        C456   1.399       .  A
C455        H460   1.083       .  S
C456        C457   1.403       .  A
C456        H461   1.083       .  S
C457        C458   1.408       .  A
C458        H462   1.083       .  S
C463        C464   1.203       .  T
C465        C466   1.404       .  A
C465        C470   1.392   1_545  A
C465        H471   1.083       .  S
C466        C467   1.407       .  A
C467        C468   1.406   1_545  A
C467        H472   1.083       .  S
C468        C469   1.407       .  A
C468        H473   1.083       .  S
C469        C470   1.404       .  A
C470        H474   1.083       .  S
C475        C476   1.407       .  A
C475        C480   1.399       .  A
C475        H481   1.083       .  S
C476        C477   1.403       .  A
C477        C478   1.399       .  A
C477        H482   1.083       .  S
C478        C479   1.407       .  A
C478        H483   1.083       .  S
C479        C480   1.404       .  A
C480        H484   1.083       .  S
C485        C486   1.203       .  T
C487        C488   1.403       .  A
C487        C492   1.399       .  A
C487        H493   1.083       .  S
C488        C489   1.407       .  A
C489        C490   1.399       .  A
C489        H494   1.083       .  S
C490        C491   1.403       .  A
C490        H495   1.083       .  S
C491        C492   1.407       .  A
C492        H496   1.083       .  S
C497        C498   1.206       .  T
C499        C500   1.404       .  A
C499        C504   1.391   1_565  A
C499        H505   1.083       .  S
C500        C501   1.408       .  A
C501        C502   1.408   1_565  A
C501        H506   1.083       .  S
C502        C503   1.408       .  A
C502        H507   1.083       .  S
C503        C504   1.403       .  A
C504        H508   1.083       .  S
C509        C510   1.408       .  A
C509        C514   1.402       .  A
C509        H515   1.083       .  S
C510        C511   1.402       .  A
C511        C512   1.397       .  A
C511        H516   1.083       .  S
C512        C513   1.406       .  A
C512        H517   1.083       .  S
C513        C514   1.405       .  A
C514        H518   1.083       .  S
C519        C520   1.406       .  A
C519        C524   1.403       .  A
C519        H525   1.083       .  S
C520        C521   1.404       .  A
C521        C522   1.393       .  A
C521        H526   1.083       .  S
C522        C523   1.403       .  A
C522        H527   1.083       .  S
C523        C524   1.406       .  A
C524        H528   1.083       .  S
C529        C530   1.205       .  T
C531        C532   1.406       .  A
C531        C536   1.398       .  A
C531        H537   1.083       .  S
C532        C533   1.404       .  A
C533        C534   1.400       .  A
C533        H538   1.083       .  S
C534        C535   1.408       .  A
C534        H539   1.083       .  S
C535        C536   1.403       .  A
C536        H540   1.083       .  S
C541        C542   1.404       .  A
C541        C546   1.392       .  A
C541        H547   1.083       .  S
C542        C543   1.406       .  A
C543        C544   1.402       .  A
C543        H548   1.083       .  S
C544        C545   1.406       .  A
C544        H549   1.083       .  S
C545        C546   1.403       .  A
C546        H550   1.083       .  S
C551        C552   1.206       .  T
C553        C554   1.407       .  A
C553        C558   1.406   1_545  A
C553        H559   1.083       .  S
C554        C555   1.404       .  A
C555        C556   1.391   1_545  A
C555        H560   1.083       .  S
C556        C557   1.404       .  A
C556        H561   1.083       .  S
C557        C558   1.407       .  A
C558        H562   1.083       .  S
C563        C564   1.403       .  A
C563        C568   1.399       .  A
C563        H569   1.083       .  S
C564        C565   1.407       .  A
C565        C566   1.400       .  A
C565        H570   1.083       .  S
C566        C567   1.404       .  A
C566        H571   1.083       .  S
C567        C568   1.407       .  A
C568        H572   1.083       .  S
C573        C574   1.404       .  A
C573        C578   1.393       .  A
C573        H579   1.083       .  S
C574        C575   1.407       .  A
C575        C576   1.404       .  A
C575        H580   1.083       .  S
C576        C577   1.407       .  A
C576        H581   1.083       .  S
C577        C578   1.404       .  A
C578        H582   1.083       .  S
C583        C584   1.207       .  T
C585        C586   1.404       .  A
C585        C590   1.400       .  A
C585        H591   1.083       .  S
C586        C587   1.407       .  A
C587        C588   1.400       .  A
C587        H592   1.083       .  S
C588        C589   1.404       .  A
C588        H593   1.083       .  S
C589        C590   1.407       .  A
C590        H594   1.083       .  S
C595        C596   1.406       .  A
C595        C600   1.402       .  A
C595        H601   1.083       .  S
C596        C597   1.404       .  A
C597        C598   1.394       .  A
C597        H602   1.083       .  S
C598        C599   1.404       .  A
C598        H603   1.083       .  S
C599        C600   1.406       .  A
C600        H604   1.083       .  S
C605        C606   1.205       .  T
C607        C608   1.404       .  A
C607        C612   1.390   1_545  A
C607        H613   1.083       .  S
C608        C609   1.408       .  A
C609        C610   1.409   1_545  A
C609        H614   1.083       .  S
C610        C611   1.408       .  A
C610        H615   1.083       .  S
C611        C612   1.403       .  A
C612        H616   1.083       .  S
