geometry optimzed in LAMMPS
_audit_creation_date              2020-11-30 
_audit_creation_method            'lammps2cif' 
_symmetry_space_group_name_H-M    'P1' 
_symmetry_Int_Tables_number       1 
_symmetry_cell_setting            triclinic 
loop_ 
_symmetry_equiv_pos_as_xyz 
  x,y,z 
_cell_length_a                    65.96901165709988 
_cell_length_b                    65.95449216665978 
_cell_length_c                    65.96012439581281 
_cell_angle_alpha                 89.92333392753532 
_cell_angle_beta                  89.98414872028525 
_cell_angle_gamma                 90.0395651317242 
loop_ 
_atom_site_label 
_atom_site_type_symbol 
_atom_site_fract_x 
_atom_site_fract_y 
_atom_site_fract_z 
_atom_site_charge 
N1          N  0.72219925  0.76552965  0.70754586    -0.26670
N2          N  0.70902726  0.76698329  0.72260383    -0.34530
C3          C  0.69468126  0.78056367  0.71750978     0.01670
C4          C  0.69886702  0.78770050  0.69821916     0.07690
C5          C  0.71639251  0.77783897  0.69237583    -0.05410
H6          H  0.68143771  0.78392584  0.72658102     0.08360
H7          H  0.72401306  0.77900011  0.67789204     0.09560
Cu8        Cu  0.70881351  0.74781564  0.74763771     0.44170
Cu9        Cu  0.74629381  0.74544222  0.70686949     0.41990
Cu10       Cu  0.74418778  0.70610922  0.74403697     0.43880
N11         N  0.70851658  0.72294037  0.76700114    -0.34060
N12         N  0.72107486  0.70745237  0.76501260    -0.28310
C13         C  0.71525384  0.69242724  0.77746245    -0.04410
C14         C  0.69838771  0.69883190  0.78800813     0.07800
C15         C  0.69450142  0.71825544  0.78109722     0.01600
H16         H  0.72226971  0.67761572  0.77814057     0.09250
H17         H  0.68160249  0.72763796  0.78489344     0.08330
N18         N  0.76504349  0.70650806  0.72078090    -0.35510
N19         N  0.76632672  0.72131809  0.70734787    -0.27690
C20         C  0.78035800  0.71643173  0.69339249    -0.02930
C21         C  0.78800071  0.69747760  0.69817122     0.05680
C22         C  0.77796363  0.69166444  0.71563729     0.03770
H23         H  0.78364501  0.72531350  0.67998596     0.08880
H24         H  0.77932794  0.67736569  0.72357756     0.07710
N25         N  0.20824022  0.72215790  0.26564491    -0.26670
N26         N  0.20750215  0.70840914  0.25108230    -0.34530
C27         C  0.19418145  0.69388603  0.25637132     0.01670
C28         C  0.18635592  0.69857719  0.27527328     0.07690
C29         C  0.19560124  0.71662543  0.28065115    -0.05410
H30         H  0.19139369  0.68027133  0.24767113     0.08360
H31         H  0.19381946  0.72482963  0.29473159     0.09560
Cu32       Cu  0.22692351  0.70795894  0.22630476     0.44170
Cu33       Cu  0.22804636  0.74654001  0.26605335     0.41990
Cu34       Cu  0.26797749  0.74389112  0.22930491     0.43880
N35         N  0.25151873  0.70790092  0.20666201    -0.34060
N36         N  0.26683199  0.72072203  0.20838798    -0.28310
C37         C  0.28176084  0.71510199  0.19576064    -0.04410
C38         C  0.27544653  0.69809739  0.18537176     0.07800
C39         C  0.25620022  0.69391136  0.19257585     0.01600
H40         H  0.29646318  0.72233272  0.19487092     0.09250
H41         H  0.24696336  0.68084007  0.18898254     0.08330
N42         N  0.26739560  0.76481640  0.25248334    -0.35510
N43         N  0.25242861  0.76632188  0.26570222    -0.27690
C44         C  0.25732702  0.78034843  0.27965619    -0.02930
C45         C  0.27643698  0.78775273  0.27510323     0.05680
C46         C  0.28233147  0.77758663  0.25776968     0.03770
H47         H  0.24832284  0.78378977  0.29292488     0.08880
H48         H  0.29673902  0.77876373  0.25001432     0.07710
N49         N  0.72165987  0.26622966  0.76596793    -0.26670
N50         N  0.70677825  0.25290352  0.76456436    -0.34530
C51         C  0.69192877  0.25803600  0.77748406     0.01670
C52         C  0.69782955  0.27535459  0.78766758     0.07690
C53         C  0.71682470  0.28008867  0.78010444    -0.05410
H54         H  0.67756143  0.25021235  0.77874208     0.08360
H55         H  0.72575262  0.29342708  0.78349649     0.09560
Cu56       Cu  0.70630819  0.22978792  0.74359873     0.44170
Cu57       Cu  0.74575139  0.26673191  0.74588702     0.41990
Cu58       Cu  0.74791192  0.22606110  0.70818956     0.43880
N59         N  0.70755854  0.20876275  0.72056156    -0.34060
N60         N  0.72300466  0.20672881  0.70795071    -0.28310
C61         C  0.71827841  0.19257552  0.69402747    -0.04410
C62         C  0.69887115  0.18567376  0.69803755     0.07800
C63         C  0.69252589  0.19628821  0.71487751     0.01600
H64         H  0.72762565  0.18871406  0.68111832     0.09250
H65         H  0.67774963  0.19562801  0.72197594     0.08330
N66         N  0.76723902  0.25097870  0.70856302    -0.35510
N67         N  0.76581053  0.26601268  0.72175910    -0.27690
C68         C  0.77819594  0.28114338  0.71599687    -0.02930
C69         C  0.78813426  0.27523513  0.69856914     0.05680
C70         C  0.78091819  0.25603581  0.69427456     0.03770
H71         H  0.77933423  0.29565923  0.72354063     0.08880
H72         H  0.78428178  0.24703156  0.68099294     0.07710
N73         N  0.20735831  0.26592866  0.72183674    -0.26670
N74         N  0.20906312  0.25285424  0.70678129    -0.34530
C75         C  0.19637064  0.25818132  0.69180056     0.01670
C76         C  0.18602254  0.27536664  0.69777327     0.07690
C77         C  0.19324567  0.27981711  0.71695925    -0.05410
H78         H  0.19537937  0.25057867  0.67730738     0.08360
H79         H  0.18965037  0.29300323  0.72601322     0.09560
Cu80       Cu  0.23011014  0.22981451  0.70618119     0.44170
Cu81       Cu  0.22710900  0.26623961  0.74623489     0.41990
Cu82       Cu  0.26594315  0.22661225  0.74726647     0.43880
N83         N  0.25318072  0.20881942  0.70733568    -0.34060
N84         N  0.26597144  0.20698280  0.72265159    -0.28310
C85         C  0.27987472  0.19280633  0.71795238    -0.04410
C86         C  0.27566851  0.18568408  0.69868396     0.07800
C87         C  0.25872868  0.19619409  0.69239520     0.01600
H88         H  0.29290822  0.18909383  0.72718894     0.09250
H89         H  0.25148225  0.19537524  0.67770259     0.08330
N90         N  0.26540640  0.25143021  0.76665066    -0.35510
N91         N  0.25157734  0.26592952  0.76592949    -0.27690
C92         C  0.25705723  0.28097231  0.77852022    -0.02930
C93         C  0.27514703  0.27569025  0.78773047     0.05680
C94         C  0.27992307  0.25680104  0.77992735     0.03770
H95         H  0.24877618  0.29501018  0.78030771     0.08880
H96         H  0.29358037  0.24816270  0.78271164     0.07710
N97         N  0.26550771  0.76696443  0.72274498    -0.26670
N98         N  0.25255469  0.76522852  0.70755002    -0.34530
C99         C  0.25821836  0.77763744  0.69243248     0.01670
C100        C  0.27542424  0.78788853  0.69845146     0.07690
C101        C  0.27961930  0.78087288  0.71778344    -0.05410
H102        H  0.25080637  0.77852093  0.67782424     0.08360
H103        H  0.29275439  0.78448629  0.72691362     0.09560
Cu104      Cu  0.22910757  0.74459433  0.70660755     0.44170
Cu105      Cu  0.26551421  0.74754686  0.74759301     0.41990
Cu106      Cu  0.22858170  0.70630347  0.74479909     0.43880
N107        N  0.20863201  0.72099537  0.70676990    -0.34060
N108        N  0.20819117  0.70691107  0.72099951    -0.28310
C109        C  0.19447319  0.69272811  0.71589211    -0.04410
C110        C  0.18605498  0.69807183  0.69739803     0.07800
C111        C  0.19536548  0.71613858  0.69213219     0.01600
H112        H  0.19185461  0.67890099  0.72433790     0.09250
H113        H  0.19330176  0.72474241  0.67831480     0.08330
N114        N  0.25233588  0.70736291  0.76524194    -0.35510
N115        N  0.26532123  0.72257919  0.76686770    -0.27690
C116        C  0.27948406  0.71768800  0.78072635    -0.02930
C117        C  0.27527463  0.69843761  0.78789562     0.05680
C118        C  0.25807495  0.69230542  0.77771146     0.03770
H119        H  0.29263659  0.72683981  0.78424271     0.08880
H120        H  0.25072390  0.67766612  0.77869143     0.07710
N121        N  0.72192239  0.20723948  0.26544949    -0.26670
N122        N  0.70788753  0.20727858  0.25112909    -0.34530
C123        C  0.69317756  0.19410627  0.25624418     0.01670
C124        C  0.69838877  0.18524632  0.27447944     0.07690
C125        C  0.71660855  0.19392455  0.27995648    -0.05410
H126        H  0.67926757  0.19191097  0.24783865     0.08360
H127        H  0.72474846  0.19168432  0.29402080     0.09560
Cu128      Cu  0.70782592  0.22711590  0.22675224     0.44170
Cu129      Cu  0.74582572  0.22752237  0.26654420     0.41990
Cu130      Cu  0.74539147  0.26703003  0.22886763     0.43880
N131        N  0.70841467  0.25153893  0.20699489    -0.34060
N132        N  0.72169337  0.26649491  0.20837823    -0.28310
C133        C  0.71621558  0.28148329  0.19571337    -0.04410
C134        C  0.69880723  0.27556371  0.18568737     0.07800
C135        C  0.69432839  0.25645682  0.19309756     0.01600
H136        H  0.72390892  0.29592559  0.19447416     0.09250
H137        H  0.68101216  0.24747217  0.18976589     0.08330
N138        N  0.76580757  0.26607215  0.25261132    -0.35510
N139        N  0.76572901  0.25177165  0.26665161    -0.27690
C140        C  0.77899874  0.25675592  0.28127663    -0.02930
C141        C  0.78794399  0.27506044  0.27613925     0.05680
C142        C  0.77928841  0.28044129  0.25778976     0.03770
H143        H  0.78137392  0.24803721  0.29497184     0.08880
H144        H  0.78160246  0.29439998  0.24947109     0.07710
O145        O  0.50868776  0.50808404  0.11400821    -0.72330
O146        O  0.46575477  0.46525348  0.11402243    -0.73310
O147        O  0.46581548  0.50812831  0.11402143    -0.61930
O148        O  0.50861486  0.46521836  0.11399880    -0.70340
O149        O  0.50888344  0.46490888  0.14768848    -0.69890
O150        O  0.46556088  0.50834211  0.14771085    -0.61140
O151        O  0.46550296  0.46494753  0.14771273    -0.73650
O152        O  0.50895029  0.50829001  0.14769865    -0.72430
Cu153      Cu  0.48721664  0.48667453  0.11289597     1.04560
Cu154      Cu  0.48722308  0.48662252  0.14895658     1.04330
C155        C  0.51558243  0.51490835  0.13072328     0.93870
C156        C  0.45888459  0.45835924  0.13074087     0.93010
C157        C  0.45895274  0.51497954  0.13073848     0.85160
C158        C  0.51548128  0.45831821  0.13070828     0.91430
N159        N  0.35704403  0.35669908  0.05038207    -0.26670
N160        N  0.37121483  0.37071445  0.04821981    -0.34530
C161        C  0.37444413  0.37393798  0.02836062     0.01670
C162        C  0.36168703  0.36133991  0.01762947     0.07690
C163        C  0.35083850  0.35058303  0.03193756    -0.05410
H164        H  0.38526483  0.38464955  0.02223111     0.08360
H165        H  0.33933269  0.33920590  0.02920766     0.09560
Cu166      Cu  0.38542495  0.38475748  0.07239982     0.44170
Cu167      Cu  0.34711278  0.34688497  0.07843977     0.41990
Cu168      Cu  0.37100329  0.36984809  0.12317270     0.43880
N169        N  0.39791001  0.39716978  0.09836921    -0.34060
N170        N  0.39279190  0.39187300  0.11703694    -0.28310
C171        C  0.40379056  0.40291357  0.13026844    -0.04410
C172        C  0.41631203  0.41564432  0.11925862     0.07800
C173        C  0.41222579  0.41163779  0.09917609     0.01600
H174        H  0.40273039  0.40174062  0.14659785     0.09250
H175        H  0.41913791  0.41870822  0.08607180     0.08330
N176        N  0.34854377  0.34767130  0.12427490    -0.35510
N177        N  0.33989720  0.33960666  0.10806020    -0.27690
C178        C  0.32590569  0.32602036  0.11398058    -0.02930
C179        C  0.32578740  0.32547959  0.13485293     0.05680
C180        C  0.34027809  0.33930345  0.14097056     0.03770
H181        H  0.31657095  0.31715742  0.10381882     0.08880
H182        H  0.34444717  0.34306253  0.15637772     0.07710
N183        N  0.35703881  0.61649315  0.05024122    -0.26670
N184        N  0.37118964  0.60247702  0.04811751    -0.34530
C185        C  0.37444609  0.59928000  0.02827043     0.01670
C186        C  0.36173275  0.61190005  0.01750708     0.07690
C187        C  0.35087467  0.62263846  0.03178014    -0.05410
H188        H  0.38524427  0.58855729  0.02217096     0.08360
H189        H  0.33937361  0.63400456  0.02901619     0.09560
Cu190      Cu  0.38533474  0.58838288  0.07231759     0.44170
Cu191      Cu  0.34703251  0.62622502  0.07826641     0.41990
Cu192      Cu  0.37082398  0.60319415  0.12303775     0.43880
N193        N  0.39782286  0.57598560  0.09830591    -0.34060
N194        N  0.39267735  0.58124031  0.11696184    -0.28310
C195        C  0.40371452  0.57023802  0.13021308    -0.04410
C196        C  0.41628999  0.55758145  0.11922643     0.07800
C197        C  0.41219145  0.56158989  0.09913819     0.01600
H198        H  0.40265076  0.57139177  0.14654030     0.09250
H199        H  0.41913754  0.55457389  0.08604430     0.08330
N200        N  0.34834823  0.62534651  0.12407893    -0.35510
N201        N  0.33968875  0.63337028  0.10786318    -0.27690
C202        C  0.32565448  0.64688106  0.11374715    -0.02930
C203        C  0.32544604  0.64754928  0.13470374     0.05680
C204        C  0.34008148  0.63370584  0.14073774     0.03770
H205        H  0.31650044  0.65575568  0.10342899     0.08880
H206        H  0.34428268  0.62977331  0.15609609     0.07710
N207        N  0.61608140  0.35554541  0.05029231    -0.26670
N208        N  0.60259239  0.37020206  0.04814439    -0.34530
C209        C  0.59975782  0.37380510  0.02829715     0.01670
C210        C  0.61206953  0.36079804  0.01756102     0.07690
C211        C  0.62225184  0.34940444  0.03184555    -0.05410
H212        H  0.58948491  0.38503411  0.02217950     0.08360
H213        H  0.63326170  0.33756256  0.02909955     0.09560
Cu214      Cu  0.58870487  0.38458795  0.07228734     0.44170
Cu215      Cu  0.62522290  0.34496365  0.07832179     0.41990
Cu216      Cu  0.60421016  0.37077868  0.12293496     0.43880
N217        N  0.57647645  0.39726576  0.09823393    -0.34060
N218        N  0.58202446  0.39238871  0.11688494    -0.28310
C219        C  0.57105613  0.40342827  0.13013532    -0.04410
C220        C  0.55811269  0.41573006  0.11915136     0.07800
C221        C  0.56191940  0.41146931  0.09906468     0.01600
H222        H  0.57242186  0.40254544  0.14645881     0.09250
H223        H  0.55466172  0.41819493  0.08597461     0.08330
N224        N  0.62583726  0.34782636  0.12405236    -0.35510
N225        N  0.63278020  0.33811260  0.10794348    -0.27690
C226        C  0.64597402  0.32380460  0.11392874    -0.02930
C227        C  0.64764553  0.32466916  0.13477910     0.05680
C228        C  0.63472742  0.34010396  0.14071324     0.03770
H229        H  0.65411262  0.31384006  0.10376515     0.08880
H230        H  0.63180957  0.34519551  0.15602379     0.07710
N231        N  0.61658934  0.61749898  0.05030589    -0.26670
N232        N  0.60318851  0.60274389  0.04819666    -0.34530
C233        C  0.60037516  0.59910587  0.02836305     0.01670
C234        C  0.61261252  0.61218791  0.01758221     0.07690
C235        C  0.62272510  0.62367074  0.03183449    -0.05410
H236        H  0.59014593  0.58781770  0.02228415     0.08360
H237        H  0.63364872  0.63560334  0.02904828     0.09560
Cu238      Cu  0.58935039  0.58830119  0.07236388     0.44170
Cu239      Cu  0.62565413  0.62812874  0.07834466     0.41990
Cu240      Cu  0.60515472  0.60173527  0.12298038     0.43880
N241        N  0.57709363  0.57559976  0.09830826    -0.34060
N242        N  0.58274833  0.58032809  0.11695411    -0.28310
C243        C  0.57168254  0.56933743  0.13020640    -0.04410
C244        C  0.55856808  0.55722726  0.11922379     0.07800
C245        C  0.56237496  0.56154533  0.09914054     0.01600
H246        H  0.57309005  0.57013164  0.14652905     0.09250
H247        H  0.55500148  0.55496603  0.08605183     0.08330
N248        N  0.62673791  0.62476274  0.12406485    -0.35510
N249        N  0.63339173  0.63476863  0.10797632    -0.27690
C250        C  0.64648923  0.64916979  0.11396746    -0.02930
C251        C  0.64842296  0.64802657  0.13477924     0.05680
C252        C  0.63576163  0.63235426  0.14070353     0.03770
H253        H  0.65438255  0.65939876  0.10383798     0.08880
H254        H  0.63307105  0.62705392  0.15599966     0.07710
O255        O  0.46558573  0.50815249  0.85957956    -0.72330
O256        O  0.50845433  0.46529644  0.85960623    -0.73310
O257        O  0.50845602  0.50817706  0.85959650    -0.61930
O258        O  0.46558547  0.46527500  0.85959274    -0.70340
O259        O  0.46534613  0.46505393  0.82590324    -0.69890
O260        O  0.50873895  0.50847039  0.82590702    -0.61140
O261        O  0.50872888  0.46506998  0.82591685    -0.73650
O262        O  0.46535040  0.50844394  0.82589049    -0.72430
Cu263      Cu  0.48702248  0.48672394  0.86071053     1.04560
Cu264      Cu  0.48704476  0.48676074  0.82465105     1.04330
C265        C  0.45872147  0.51503280  0.84285937     0.93870
C266        C  0.51532263  0.45843572  0.84289499     0.93010
C267        C  0.51533391  0.51507476  0.84288273     0.85160
C268        C  0.45871499  0.45842691  0.84287703     0.91430
N269        N  0.35784554  0.35569381  0.92330624    -0.26670
N270        N  0.37116497  0.37052494  0.92541298    -0.34530
C271        C  0.37390749  0.37423718  0.94524441     0.01670
C272        C  0.36170930  0.36112843  0.95603775     0.07690
C273        C  0.35169194  0.34955168  0.94178625    -0.05410
H274        H  0.38406616  0.38559447  0.95131467     0.08360
H275        H  0.34082068  0.33757417  0.94458138     0.09560
Cu276      Cu  0.38499748  0.38498286  0.90125157     0.44170
Cu277      Cu  0.34888699  0.34494180  0.89524158     0.41990
Cu278      Cu  0.36895537  0.37172073  0.85064937     0.43880
N279        N  0.39723346  0.39768521  0.87529827    -0.34060
N280        N  0.39149867  0.39302579  0.85665846    -0.28310
C281        C  0.40257220  0.40400951  0.84340215    -0.04410
C282        C  0.41577158  0.41604271  0.85437524     0.07800
C283        C  0.41200499  0.41168534  0.87445781     0.01600
H284        H  0.40110285  0.40327490  0.82708246     0.09250
H285        H  0.41943215  0.41821311  0.88754265     0.08330
N286        N  0.34739420  0.34863714  0.84953580    -0.35510
N287        N  0.34101427  0.33838616  0.86558824    -0.27690
C288        C  0.32801265  0.32389816  0.85956704    -0.02930
C289        C  0.32582394  0.32529102  0.83880462     0.05680
C290        C  0.33822694  0.34116485  0.83291048     0.03770
H291        H  0.32034486  0.31344148  0.86963740     0.08880
H292        H  0.34066835  0.34665143  0.81763824     0.07710
N293        N  0.35684426  0.61655956  0.92319714    -0.26670
N294        N  0.37091901  0.60246022  0.92531162    -0.34530
C295        C  0.37417801  0.59920123  0.94515370     0.01670
C296        C  0.36154069  0.61185853  0.95593073     0.07690
C297        C  0.35072430  0.62268840  0.94166800    -0.05410
H298        H  0.38495487  0.58843760  0.95124036     0.08360
H299        H  0.33932146  0.63414405  0.94444624     0.09560
Cu300      Cu  0.38502987  0.58837840  0.90112331     0.44170
Cu301      Cu  0.34701351  0.62654130  0.89515876     0.41990
Cu302      Cu  0.37028752  0.60298800  0.85040716     0.43880
N303        N  0.39749624  0.57595945  0.87516908    -0.34060
N304        N  0.39227287  0.58114126  0.85650388    -0.28310
C305        C  0.40333059  0.57015614  0.84327603    -0.04410
C306        C  0.41599047  0.55757994  0.85429034     0.07800
C307        C  0.41192402  0.56162297  0.87436903     0.01600
H308        H  0.40221804  0.57125999  0.82694674     0.09250
H309        H  0.41892806  0.55466731  0.88747804     0.08330
N310        N  0.34804246  0.62539234  0.84932790    -0.35510
N311        N  0.33988697  0.63391893  0.86553037    -0.27690
C312        C  0.32631682  0.64789855  0.85961697    -0.02930
C313        C  0.32575544  0.64823898  0.83864648     0.05680
C314        C  0.33973130  0.63371382  0.83265103     0.03770
H315        H  0.31735569  0.65694609  0.86993502     0.08880
H316        H  0.34379080  0.62961615  0.81730725     0.07710
N317        N  0.61776618  0.35736926  0.92328801    -0.26670
N318        N  0.60304849  0.37078567  0.92542977    -0.33610
C319        C  0.59939955  0.37353133  0.94527390     0.01670
C320        C  0.61244013  0.36123406  0.95601309     0.07690
C321        C  0.62390233  0.35115514  0.94173386    -0.05410
H322        H  0.58812392  0.38374203  0.95138775     0.08360
H323        H  0.63579042  0.34019052  0.94448264     0.09560
Cu324      Cu  0.58866750  0.38470295  0.90127507     0.44170
Cu325      Cu  0.62840807  0.34837073  0.89526602     0.41990
Cu326      Cu  0.60224619  0.36907373  0.85063947     0.43880
N327        N  0.57602610  0.39701215  0.87532677    -0.34060
N328        N  0.58080912  0.39141635  0.85667692    -0.28310
C329        C  0.56984071  0.40248569  0.84342727    -0.04410
C330        C  0.55768521  0.41554441  0.85441295     0.07800
C331        C  0.56195608  0.41169856  0.87449720     0.01600
H332        H  0.57067748  0.40111507  0.82710361     0.09250
H333        H  0.55532962  0.41902060  0.88758822     0.08330
N334        N  0.62525561  0.34751227  0.84956391    -0.35510
N335        N  0.63515139  0.34075904  0.86566135    -0.27690
C336        C  0.64954462  0.32766892  0.85968499    -0.02930
C337        C  0.64852279  0.32585693  0.83886487     0.05680
C338        C  0.63292400  0.33857391  0.83292365     0.03770
H339        H  0.65967812  0.31969770  0.86983107     0.08880
H340        H  0.62771246  0.34134813  0.81761857     0.07710
N341        N  0.61692296  0.61698245  0.92327118    -0.26670
N342        N  0.60292427  0.60279545  0.92543586    -0.34530
C343        C  0.59984043  0.59943390  0.94529366     0.01670
C344        C  0.61252043  0.61211419  0.95601526     0.07690
C345        C  0.62317024  0.62306511  0.94171006    -0.05410
H346        H  0.58915868  0.58858632  0.95142791     0.08360
H347        H  0.63454867  0.63457073  0.94443680     0.09560
Cu348      Cu  0.58873045  0.58872086  0.90126979     0.44170
Cu349      Cu  0.62653345  0.62712321  0.89523205     0.41990
Cu350      Cu  0.60351455  0.60330080  0.85052465     0.43880
N351        N  0.57629564  0.57626575  0.87529996    -0.34060
N352        N  0.58155127  0.58143893  0.85663634    -0.28310
C353        C  0.57054736  0.57041145  0.84339761    -0.04410
C354        C  0.55788646  0.55781011  0.85439875     0.07800
C355        C  0.56189384  0.56188356  0.87448420     0.01600
H356        H  0.57170887  0.57149453  0.82706915     0.09250
H357        H  0.55488084  0.55490567  0.88758443     0.08330
N358        N  0.62564683  0.62580885  0.84943192    -0.35510
N359        N  0.63364624  0.63450318  0.86562492    -0.27690
C360        C  0.64713170  0.64857833  0.85970426    -0.02930
C361        C  0.64780838  0.64876697  0.83875050     0.05680
C362        C  0.63400316  0.63408460  0.83275094     0.03770
H363        H  0.65598977  0.65777037  0.86999227     0.08880
H364        H  0.63009086  0.62986453  0.81740043     0.07710
O365        O  0.50859502  0.14771093  0.46519812    -0.72330
O366        O  0.46530592  0.14776717  0.50867547    -0.73310
O367        O  0.50868654  0.14770777  0.50859563    -0.61930
O368        O  0.46521071  0.14775520  0.46529740    -0.70340
O369        O  0.46541420  0.11406233  0.46560677    -0.69890
O370        O  0.50836621  0.11401607  0.50837818    -0.61140
O371        O  0.46550207  0.11407322  0.50846841    -0.73650
O372        O  0.50827744  0.11401835  0.46550218    -0.72430
Cu373      Cu  0.48695356  0.14898938  0.48693985     1.04560
Cu374      Cu  0.48688941  0.11292579  0.48699042     1.04330
C375        C  0.51515866  0.13072791  0.45859012     0.93870
C376        C  0.45867261  0.13080044  0.51532130     0.93010
C377        C  0.51527511  0.13072290  0.51522054     0.85160
C378        C  0.45855401  0.13078361  0.45873038     0.91430
N379        N  0.35565212  0.05032522  0.35830365    -0.26670
N380        N  0.37047745  0.04817355  0.37160718    -0.34530
C381        C  0.37429171  0.02833086  0.37418141     0.01670
C382        C  0.36125424  0.01760490  0.36187894     0.07690
C383        C  0.34961453  0.03189037  0.35198646    -0.05410
H384        H  0.38567118  0.02220851  0.38428388     0.08360
H385        H  0.33766686  0.02915220  0.34108455     0.09560
Cu386      Cu  0.38479870  0.07233201  0.38555800     0.44170
Cu387      Cu  0.34478093  0.07835429  0.34955067     0.41990
Cu388      Cu  0.37131555  0.12298914  0.36967499     0.43880
N389        N  0.39745978  0.09830911  0.39776554    -0.34060
N390        N  0.39271439  0.11695420  0.39207698    -0.28310
C391        C  0.40374055  0.13021670  0.40305553    -0.04410
C392        C  0.41589851  0.11924715  0.41614840     0.07800
C393        C  0.41156671  0.09915708  0.41241977     0.01600
H394        H  0.40296616  0.14653794  0.40157626     0.09250
H395        H  0.41820161  0.08607452  0.41977503     0.08330
N396        N  0.34826894  0.12403565  0.34813799    -0.35510
N397        N  0.33811817  0.10794537  0.34174948    -0.27690
C398        C  0.32368701  0.11388475  0.32866987    -0.02930
C399        C  0.32502308  0.13462840  0.32645187     0.05680
C400        C  0.34078357  0.14062288  0.33889722     0.03770
H401        H  0.31334826  0.10376667  0.32093716     0.08880
H402        H  0.34622138  0.15591711  0.34126871     0.07710
N403        N  0.61657982  0.05031603  0.35666385    -0.26670
N404        N  0.60254010  0.04812976  0.37079839    -0.34530
C405        C  0.59937949  0.02826283  0.37405899     0.01670
C406        C  0.61204515  0.01755792  0.36135510     0.07690
C407        C  0.62277465  0.03188553  0.35050776    -0.05410
H408        H  0.58868169  0.02211081  0.38487812     0.08360
H409        H  0.63420421  0.02917920  0.33905441     0.09560
Cu410      Cu  0.58844698  0.07231593  0.38493514     0.44170
Cu411      Cu  0.62636416  0.07838905  0.34678106     0.41990
Cu412      Cu  0.60316510  0.12315422  0.37024905     0.43880
N413        N  0.57605408  0.09831451  0.39737171    -0.34060
N414        N  0.58127444  0.11698429  0.39216534    -0.28310
C415        C  0.57028277  0.13021771  0.40320157    -0.04410
C416        C  0.55766330  0.11920996  0.41583590     0.07800
C417        C  0.56168363  0.09912559  0.41177787     0.01600
H418        H  0.57141896  0.14654818  0.40209576     0.09250
H419        H  0.55469446  0.08602174  0.41877675     0.08330
N420        N  0.62543770  0.12421248  0.34788420    -0.35510
N421        N  0.63368824  0.10798153  0.33953969    -0.27690
C422        C  0.64745295  0.11381947  0.32572596    -0.02930
C423        C  0.64803059  0.13481266  0.32521679     0.05680
C424        C  0.63380236  0.14085165  0.33952387     0.03770
H425        H  0.65623761  0.10337169  0.31667290     0.08880
H426        H  0.62980249  0.15617745  0.34371354     0.07710
N427        N  0.35686429  0.05030584  0.61700615    -0.26670
N428        N  0.37085575  0.04821379  0.60281585    -0.34530
C429        C  0.37397587  0.02837768  0.59944658     0.01670
C430        C  0.36132924  0.01758550  0.61212409     0.07690
C431        C  0.35065560  0.03182790  0.62308321    -0.05410
H432        H  0.38466051  0.02230620  0.58859115     0.08360
H433        H  0.33928677  0.02903241  0.63458565     0.09560
Cu434      Cu  0.38501400  0.07241658  0.58873749     0.44170
Cu435      Cu  0.34721816  0.07831215  0.62714269     0.41990
Cu436      Cu  0.37013936  0.12308912  0.60316591     0.43880
N437        N  0.39748389  0.09839442  0.57630169    -0.34060
N438        N  0.39220169  0.11704691  0.58141743    -0.28310
C439        C  0.40326646  0.13030682  0.57043346    -0.04410
C440        C  0.41599092  0.11932391  0.55792571     0.07800
C441        C  0.41195884  0.09923264  0.56200380     0.01600
H442        H  0.40210602  0.14663496  0.57148501     0.09250
H443        H  0.41900797  0.08614139  0.55508943     0.08330
N444        N  0.34799176  0.12412407  0.62564891    -0.35510
N445        N  0.34005546  0.10791743  0.63443558    -0.27690
C446        C  0.32659151  0.11382451  0.64851511    -0.02930
C447        C  0.32585656  0.13477681  0.64859056     0.05680
C448        C  0.33960371  0.14079432  0.63385158     0.03770
H449        H  0.31778748  0.10353612  0.65778978     0.08880
H450        H  0.34346720  0.15615305  0.62956139     0.07710
N451        N  0.61694597  0.05019748  0.61704248    -0.26670
N452        N  0.60278412  0.04806227  0.60303218    -0.34530
C453        C  0.59949451  0.02820911  0.59987645     0.01670
C454        C  0.61219843  0.01745152  0.61251413     0.07690
C455        C  0.62308129  0.03173758  0.62322404    -0.05410
H456        H  0.58866794  0.02210097  0.58918125     0.08360
H457        H  0.63456785  0.02898239  0.63460905     0.09560
Cu458      Cu  0.58864854  0.07225273  0.58889715     0.44170
Cu459      Cu  0.62699028  0.07823566  0.62675102     0.41990
Cu460      Cu  0.60313045  0.12297183  0.60372715     0.43880
N461        N  0.57621504  0.09823765  0.57642374    -0.34060
N462        N  0.58135665  0.11689614  0.58168727    -0.28310
C463        C  0.57038438  0.13014821  0.57062165    -0.04410
C464        C  0.55785364  0.11916082  0.55791242     0.07800
C465        C  0.56191040  0.09906972  0.56195850     0.01600
H466        H  0.57146193  0.14647705  0.57176807     0.09250
H467        H  0.55498023  0.08597473  0.55492007     0.08330
N468        N  0.62560293  0.12405063  0.62588661    -0.35510
N469        N  0.63432058  0.10785407  0.63388741    -0.27690
C470        C  0.64840491  0.11377911  0.64734047    -0.02930
C471        C  0.64857183  0.13473750  0.64799543     0.05680
C472        C  0.63386696  0.14073291  0.63421245     0.03770
H473        H  0.65763821  0.10349452  0.65617270     0.08880
H474        H  0.62964525  0.15608463  0.63027323     0.07710
O475        O  0.46519596  0.82595904  0.50856679    -0.72330
O476        O  0.50872703  0.82591343  0.46532180    -0.73310
O477        O  0.50859147  0.82593180  0.50871608    -0.61930
O478        O  0.46535960  0.82594540  0.46517826    -0.70340
O479        O  0.46566180  0.85963787  0.46538555    -0.69890
O480        O  0.50837937  0.85962339  0.50840662    -0.61140
O481        O  0.50851996  0.85960655  0.46552553    -0.73650
O482        O  0.46550237  0.85965138  0.50825787    -0.72430
Cu483      Cu  0.48696715  0.82468426  0.48695150     1.04560
Cu484      Cu  0.48701763  0.86074707  0.48689533     1.04330
C485        C  0.45857618  0.84294085  0.51512252     0.93870
C486        C  0.51537395  0.84288143  0.45869069     0.93010
C487        C  0.51521111  0.84290401  0.51531995     0.85160
C488        C  0.45880479  0.84292400  0.45850746     0.91430
N489        N  0.35624250  0.92332028  0.35757567    -0.26670
N490        N  0.37101805  0.92545817  0.37093518    -0.34530
C491        C  0.37465220  0.94530296  0.37371631     0.01670
C492        C  0.36154812  0.95605112  0.36149606     0.07690
C493        C  0.35005323  0.94177405  0.35143467    -0.05410
H494        H  0.38593872  0.95141169  0.38392456     0.08360
H495        H  0.33808740  0.94453067  0.34055450     0.09560
Cu496      Cu  0.38547069  0.90130401  0.38476889     0.44170
Cu497      Cu  0.34558971  0.89528493  0.34857377     0.41990
Cu498      Cu  0.37213903  0.85068857  0.36886354     0.43880
N499        N  0.39819378  0.87535935  0.39699050    -0.34060
N500        N  0.39350707  0.85671353  0.39128892    -0.28310
C501        C  0.40449355  0.84346133  0.40233722    -0.04410
C502        C  0.41656017  0.85444216  0.41549166     0.07800
C503        C  0.41221828  0.87452582  0.41172420     0.01600
H504        H  0.40372298  0.82713922  0.40089381     0.09250
H505        H  0.41876085  0.88761345  0.41913573     0.08330
N506        N  0.34905494  0.84960144  0.34736968    -0.35510
N507        N  0.33897745  0.86567119  0.34082115    -0.27690
C508        C  0.32453404  0.85967588  0.32778492    -0.02930
C509        C  0.32572846  0.83888417  0.32578203     0.05680
C510        C  0.34147130  0.83296945  0.33832866     0.03770
H511        H  0.31425127  0.86979218  0.31996935     0.08880
H512        H  0.34682688  0.81768363  0.34092721     0.07710
N513        N  0.61803235  0.92325376  0.35772108    -0.26670
N514        N  0.60330026  0.92534225  0.37114303    -0.34530
C515        C  0.59957859  0.94516971  0.37389527     0.01670
C516        C  0.61258061  0.95597606  0.36159877     0.07690
C517        C  0.62410406  0.94173978  0.35151156    -0.05410
H518        H  0.58827357  0.95122778  0.38411135     0.08360
H519        H  0.63598519  0.94454761  0.34054264     0.09560
Cu520      Cu  0.58895578  0.90116468  0.38506507     0.44170
Cu521      Cu  0.62873824  0.89520945  0.34870696     0.41990
Cu522      Cu  0.60260574  0.85054107  0.36950252     0.43880
N523        N  0.57629255  0.87522629  0.39737568    -0.34060
N524        N  0.58109844  0.85657389  0.39181461    -0.28310
C525        C  0.57008535  0.84332948  0.40287193    -0.04410
C526        C  0.55788151  0.85432492  0.41588216     0.07800
C527        C  0.56216851  0.87440693  0.41202205     0.01600
H528        H  0.57092005  0.82700361  0.40152295     0.09250
H529        H  0.55551388  0.88750492  0.41930470     0.08330
N530        N  0.62557860  0.84945240  0.34785497    -0.35510
N531        N  0.63546354  0.86555572  0.34105842    -0.27690
C532        C  0.64978092  0.85956691  0.32787327    -0.02930
C533        C  0.64872129  0.83873532  0.32603345     0.05680
C534        C  0.63317595  0.83280719  0.33885151     0.03770
H535        H  0.65987946  0.86971468  0.31983987     0.08880
H536        H  0.62793869  0.81750585  0.34163371     0.07710
N537        N  0.35697473  0.92328097  0.61697408    -0.26670
N538        N  0.37074865  0.92544238  0.60257414    -0.34530
C539        C  0.37378066  0.94529814  0.59915038     0.01670
C540        C  0.36129950  0.95602294  0.61200917     0.07690
C541        C  0.35081772  0.94172351  0.62313036    -0.05410
H542        H  0.38430608  0.95142847  0.58815122     0.08360
H543        H  0.33962323  0.94445639  0.63480757     0.09560
Cu544      Cu  0.38475960  0.90129021  0.58832549     0.44170
Cu545      Cu  0.34751734  0.89524109  0.62726572     0.41990
Cu546      Cu  0.36941529  0.85057589  0.60231400     0.43880
N547        N  0.39712440  0.87534126  0.57578916    -0.34060
N548        N  0.39165486  0.85667698  0.58073975    -0.28310
C549        C  0.40272257  0.84344271  0.56978075    -0.04410
C550        C  0.41564670  0.85445031  0.55745558     0.07800
C551        C  0.41172651  0.87453355  0.56161858     0.01600
H552        H  0.40143980  0.82711385  0.57073659     0.09250
H553        H  0.41894499  0.88763722  0.55485641     0.08330
N554        N  0.34751492  0.84946330  0.62503489    -0.35510
N555        N  0.34012535  0.86562000  0.63432193    -0.27690
C556        C  0.32687152  0.85965937  0.64859821    -0.02930
C557        C  0.32566281  0.83875036  0.64821655     0.05680
C558        C  0.33890332  0.83277910  0.63304870     0.03770
H559        H  0.31848208  0.86987376  0.65829745     0.08880
H560        H  0.34228786  0.81743135  0.62837928     0.07710
N561        N  0.61590087  0.92311543  0.61823631    -0.26670
N562        N  0.60248777  0.92525548  0.60350444    -0.34530
C563        C  0.59971848  0.94509968  0.59982417     0.01670
C564        C  0.61199406  0.95585961  0.61285393     0.07690
C565        C  0.62208534  0.94157868  0.62434847    -0.05410
H566        H  0.58950313  0.95120081  0.58853202     0.08360
H567        H  0.63303909  0.94434143  0.63624199     0.09560
Cu568      Cu  0.58859958  0.90111142  0.58911438     0.44170
Cu569      Cu  0.62493968  0.89503993  0.62890355     0.41990
Cu570      Cu  0.60423506  0.85044090  0.60271828     0.43880
N571        N  0.57634582  0.87519083  0.57640315    -0.34060
N572        N  0.58193391  0.85652765  0.58118873    -0.28310
C573        C  0.57092053  0.84330878  0.57013801    -0.04410
C574        C  0.55790939  0.85432836  0.55792948     0.07800
C575        C  0.56172610  0.87440104  0.56225624     0.01600
H576        H  0.57230251  0.82698227  0.57094642     0.09250
H577        H  0.55443551  0.88751255  0.55560855     0.08330
N578        N  0.62585652  0.84929130  0.62572523    -0.35510
N579        N  0.63261705  0.86537509  0.63562417    -0.27690
C580        C  0.64576406  0.85935991  0.64997506    -0.02930
C581        C  0.64761879  0.83852868  0.64893256     0.05680
C582        C  0.63485001  0.83263150  0.63335116     0.03770
H583        H  0.65375241  0.86949142  0.66009874     0.08880
H584        H  0.63208289  0.81733770  0.62811913     0.07710
N585        N  0.70810556  0.72139913  0.20748414    -0.26670
N586        N  0.72197811  0.70697138  0.20830387    -0.34530
C587        C  0.71682785  0.69205762  0.19543672     0.01670
C588        C  0.69899694  0.69749409  0.18586530     0.07690
C589        C  0.69394881  0.71623854  0.19375985    -0.05410
H590        H  0.72507132  0.67798574  0.19372747     0.08360
H591        H  0.68026027  0.72478664  0.19084169     0.09560
Cu592      Cu  0.74606033  0.70707815  0.22835986     0.44170
Cu593      Cu  0.70706530  0.74539779  0.22765654     0.41990
Cu594      Cu  0.74598967  0.74641284  0.26645947     0.43880
N595        N  0.76650294  0.70825786  0.25207710    -0.34060
N596        N  0.76607469  0.72227765  0.26638402    -0.28310
C597        C  0.77920936  0.71712607  0.28109689    -0.04410
C598        C  0.78854394  0.69923823  0.27554678     0.07800
C599        C  0.78015842  0.69400034  0.25712074     0.01600
H600        H  0.78114641  0.72529844  0.29517680     0.09250
H601        H  0.78272312  0.68015324  0.24872380     0.08330
N602        N  0.72177385  0.76636615  0.26551174    -0.35510
N603        N  0.70717399  0.76542737  0.25181201    -0.27690
C604        C  0.69221687  0.77817397  0.25716133    -0.02930
C605        C  0.69781071  0.78779722  0.27491109     0.05680
C606        C  0.71668005  0.78005380  0.27971867     0.03770
H607        H  0.67802089  0.77977619  0.24910704     0.08880
H608        H  0.72538095  0.78304621  0.29329476     0.07710
O609        O  0.11434807  0.50819736  0.46504924    -0.72330
O610        O  0.11435751  0.46541507  0.50804686    -0.73310
O611        O  0.11430997  0.50829136  0.50791568    -0.61930
O612        O  0.11436780  0.46531593  0.46518854    -0.70340
O613        O  0.14805196  0.46509618  0.46493573    -0.69890
O614        O  0.14799359  0.50860464  0.50819070    -0.61140
O615        O  0.14804500  0.46520826  0.50830972    -0.73650
O616        O  0.14803464  0.50849688  0.46480748    -0.72430
Cu617      Cu  0.11322909  0.48680396  0.48655031     1.04560
Cu618      Cu  0.14928495  0.48685420  0.48656177     1.04330
C619        C  0.13106469  0.51507871  0.45817264     0.93870
C620        C  0.13107601  0.45857485  0.51492584     0.93010
C621        C  0.13100920  0.51521272  0.51476721     0.85160
C622        C  0.13108497  0.45843719  0.45835115     0.91430
N623        N  0.05065358  0.35715558  0.35621217    -0.26670
N624        N  0.04851905  0.37072324  0.37078769    -0.34530
C625        C  0.02867489  0.37359484  0.37434872     0.01670
C626        C  0.01792006  0.36122060  0.36140406     0.07690
C627        C  0.03219853  0.35097317  0.35008226    -0.05410
H628        H  0.02257000  0.38395468  0.38549102     0.08360
H629        H  0.02944058  0.33992694  0.33827920     0.09560
Cu630      Cu  0.07269215  0.38468316  0.38508934     0.44170
Cu631      Cu  0.07869329  0.34795949  0.34570679     0.41990
Cu632      Cu  0.12336389  0.36908665  0.37138203     0.43880
N633        N  0.09866095  0.39698403  0.39769098    -0.34060
N634        N  0.11730958  0.39141430  0.39286254    -0.28310
C635        C  0.13055742  0.40247176  0.40383514    -0.04410
C636        C  0.11957631  0.41549379  0.41604009     0.07800
C637        C  0.09949363  0.41163752  0.41179057     0.01600
H638        H  0.14687933  0.40111852  0.40296891     0.09250
H639        H  0.08640394  0.41893345  0.41845097     0.08330
N640        N  0.12444647  0.34735653  0.34850167    -0.35510
N641        N  0.10830974  0.34037553  0.33884499    -0.27690
C642        C  0.11425807  0.32719371  0.32452261    -0.02930
C643        C  0.13511633  0.32556622  0.32530473     0.05680
C644        C  0.14108967  0.33849825  0.34072235     0.03770
H645        H  0.10406733  0.31906739  0.31456882     0.08880
H646        H  0.15641861  0.34148170  0.34573030     0.07710
N647        N  0.05081214  0.61555053  0.35505521    -0.26670
N648        N  0.04866339  0.60227179  0.36993058    -0.34530
C649        C  0.02882523  0.59961123  0.37370231     0.01670
C650        C  0.01807811  0.61182352  0.36058479     0.07690
C651        C  0.03236044  0.62176174  0.34894268    -0.05410
H652        H  0.02272009  0.58951130  0.38511298     0.08360
H653        H  0.02960631  0.63262754  0.33694955     0.09560
Cu654      Cu  0.07279329  0.58842919  0.38438625     0.44170
Cu655      Cu  0.07888841  0.62440608  0.34423396     0.41990
Cu656      Cu  0.12343175  0.60439257  0.37103833     0.43880
N657        N  0.09872085  0.57623716  0.39712978    -0.34060
N658        N  0.11736909  0.58195199  0.39243442    -0.28310
C659        C  0.13060425  0.57094419  0.40347560    -0.04410
C660        C  0.11960883  0.55780749  0.41558662     0.07800
C661        C  0.09953537  0.56153853  0.41121635     0.01600
H662        H  0.14692350  0.57242240  0.40273193     0.09250
H663        H  0.08644205  0.55414459  0.41779865     0.08330
N664        N  0.12457294  0.62589631  0.34791634    -0.35510
N665        N  0.10853977  0.63225430  0.33765815    -0.27690
C666        C  0.11457613  0.64527899  0.32317922    -0.02930
C667        C  0.13532569  0.64750027  0.32459026     0.05680
C668        C  0.14120263  0.63509754  0.34045837     0.03770
H669        H  0.10451990  0.65296400  0.31273925     0.08880
H670        H  0.15646102  0.63270411  0.34597332     0.07710
N671        N  0.05058763  0.35756813  0.61742824    -0.26670
N672        N  0.04846204  0.37102334  0.60271496    -0.34530
C673        C  0.02862323  0.37381345  0.59907230     0.01670
C674        C  0.01786521  0.36150297  0.61211250     0.07690
C675        C  0.03213355  0.35137348  0.62356949    -0.05410
H676        H  0.02252588  0.38406807  0.58780726     0.08360
H677        H  0.02937067  0.34039393  0.63546184     0.09560
Cu678      Cu  0.07264078  0.38493285  0.58834669     0.44170
Cu679      Cu  0.07861239  0.34851240  0.62805909     0.41990
Cu680      Cu  0.12327732  0.36925923  0.60197421     0.43880
N681        N  0.09861036  0.39721734  0.57571534    -0.34060
N682        N  0.11725081  0.39160263  0.58051860    -0.28310
C683        C  0.13051729  0.40265853  0.56954362    -0.04410
C684        C  0.11955161  0.41572819  0.55736382     0.07800
C685        C  0.09946326  0.41190699  0.56162167     0.01600
H686        H  0.14683759  0.40126851  0.57039198     0.09250
H687        H  0.08638684  0.41924478  0.55496996     0.08330
N688        N  0.12432776  0.34767814  0.62498558    -0.35510
N689        N  0.10821666  0.34088593  0.63484397    -0.27690
C690        C  0.11418253  0.32777839  0.64925370    -0.02930
C691        C  0.13501090  0.32600489  0.64828575     0.05680
C692        C  0.14096537  0.33875991  0.63269680     0.03770
H693        H  0.10402628  0.31978007  0.65936996     0.08880
H694        H  0.15627670  0.34157925  0.62752243     0.07710
N695        N  0.05049051  0.61616887  0.61709911    -0.26670
N696        N  0.04833359  0.60278319  0.60236042    -0.34530
C697        C  0.02848496  0.60000580  0.59874702     0.01670
C698        C  0.01776538  0.61225482  0.61183179     0.07690
C699        C  0.03205840  0.62233639  0.62328048    -0.05410
H700        H  0.02235433  0.58979808  0.58747600     0.08360
H701        H  0.02932824  0.63325932  0.63520305     0.09560
Cu702      Cu  0.07249757  0.58894023  0.58794424     0.44170
Cu703      Cu  0.07850984  0.62515534  0.62774145     0.41990
Cu704      Cu  0.12314340  0.60491196  0.60131505     0.43880
N705        N  0.09847510  0.57669979  0.57531435    -0.34060
N706        N  0.11711567  0.58241073  0.58002514    -0.28310
C707        C  0.13037632  0.57134549  0.56908989    -0.04410
C708        C  0.11941210  0.55817207  0.55702604     0.07800
C709        C  0.09932570  0.56194685  0.56132089     0.01600
H710        H  0.14669473  0.57280360  0.56987866     0.09250
H711        H  0.08624682  0.55453553  0.55475668     0.08330
N712        N  0.12417991  0.62645512  0.62434925    -0.35510
N713        N  0.10808286  0.63290215  0.63444205    -0.27690
C714        C  0.11402215  0.64587373  0.64895799    -0.02930
C715        C  0.13477648  0.64795125  0.64774444     0.05680
C716        C  0.14077770  0.63555098  0.63196211     0.03770
H717        H  0.10390674  0.65358110  0.65931081     0.08880
H718        H  0.15608735  0.63307364  0.62662862     0.07710
O719        O  0.85994514  0.46534861  0.50803840    -0.72330
O720        O  0.85996030  0.50825139  0.46516389    -0.73310
O721        O  0.85993476  0.50822000  0.50803545    -0.61930
O722        O  0.85997281  0.46537985  0.46516723    -0.70340
O723        O  0.82628869  0.46509021  0.46489740    -0.69890
O724        O  0.82624994  0.50844613  0.50828217    -0.61140
O725        O  0.82627367  0.50847897  0.46489307    -0.73650
O726        O  0.82625876  0.46505941  0.50828497    -0.72430
Cu727      Cu  0.86107020  0.48680254  0.48660083     1.04560
Cu728      Cu  0.82501430  0.48676907  0.48658815     1.04330
C729        C  0.84322855  0.45845797  0.51490404     0.93870
C730        C  0.84324915  0.51510721  0.45828391     0.93010
C731        C  0.84321602  0.51506206  0.51490722     0.85160
C732        C  0.84326634  0.45849459  0.45829467     0.91430
N733        N  0.92362493  0.35765193  0.35572405    -0.26670
N734        N  0.92576364  0.37101374  0.37048856    -0.34530
C735        C  0.94560228  0.37368660  0.37423472     0.01670
C736        C  0.95635013  0.36139193  0.36121801     0.07690
C737        C  0.94207263  0.35139753  0.34966017    -0.05410
H738        H  0.95170861  0.38385872  0.38555143     0.08360
H739        H  0.94482678  0.34047436  0.33774389     0.09560
Cu740      Cu  0.90160440  0.38495125  0.38480910     0.44170
Cu741      Cu  0.89558161  0.34878120  0.34494439     0.41990
Cu742      Cu  0.85096090  0.36909657  0.37140199     0.43880
N743        N  0.87565987  0.39722530  0.39745690    -0.34060
N744        N  0.85700967  0.39155534  0.39273768    -0.28310
C745        C  0.84377204  0.40259821  0.40372458    -0.04410
C746        C  0.85476463  0.41571305  0.41582850     0.07800
C747        C  0.87484135  0.41192759  0.41150429     0.01600
H748        H  0.82745147  0.40115473  0.40295462     0.09250
H749        H  0.88793613  0.41928579  0.41809686     0.08330
N750        N  0.84988677  0.34748990  0.34841967    -0.35510
N751        N  0.86596111  0.34101809  0.33830288    -0.27690
C752        C  0.85998153  0.32793805  0.32389369    -0.02930
C753        C  0.83923104  0.32580813  0.32521130     0.05680
C754        C  0.83327570  0.33830490  0.34093546     0.03770
H755        H  0.87007198  0.32016360  0.31356705     0.08880
H756        H  0.81798742  0.34076000  0.34633978     0.07710
N757        N  0.92376148  0.61673946  0.35634824    -0.26670
N758        N  0.92590349  0.60265388  0.37045761    -0.34530
C759        C  0.94575250  0.59943955  0.37368398     0.01670
C760        C  0.95650307  0.61212249  0.36099529     0.07690
C761        C  0.94221569  0.62291133  0.35017871    -0.05410
H762        H  0.95186185  0.58866053  0.38444214     0.08360
H763        H  0.94496615  0.63432782  0.33870243     0.09560
Cu764      Cu  0.90171747  0.58849858  0.38458816     0.44170
Cu765      Cu  0.89570872  0.62652780  0.34642123     0.41990
Cu766      Cu  0.85096750  0.60314796  0.36991426     0.43880
N767        N  0.87572849  0.57607639  0.39706516    -0.34060
N768        N  0.85707464  0.58127768  0.39185410    -0.28310
C769        C  0.84382118  0.57028420  0.40290932    -0.04410
C770        C  0.85480270  0.55768479  0.41556235     0.07800
C771        C  0.87489101  0.56171496  0.41149682     0.01600
H772        H  0.82749599  0.57140360  0.40180053     0.09250
H773        H  0.88797897  0.55473587  0.41850371     0.08330
N774        N  0.84988845  0.62544195  0.34756695    -0.35510
N775        N  0.86609481  0.63369432  0.33910762    -0.27690
C776        C  0.86019674  0.64745702  0.32530300    -0.02930
C777        C  0.83922159  0.64803496  0.32499228     0.05680
C778        C  0.83322015  0.63384651  0.33935452     0.03770
H779        H  0.87054364  0.65655565  0.31639704     0.08880
H780        H  0.81788732  0.62976299  0.34349382     0.07710
N781        N  0.92356267  0.35646636  0.61650338    -0.26670
N782        N  0.92570313  0.37069320  0.60253023    -0.34530
C783        C  0.94554831  0.37401651  0.59936574     0.01670
C784        C  0.95630108  0.36126891  0.61195975     0.07690
C785        C  0.94202095  0.35032236  0.62265512    -0.05410
H786        H  0.95165276  0.38489148  0.58869016     0.08360
H787        H  0.94477905  0.33878571  0.63400365     0.09560
Cu788      Cu  0.90154934  0.38487904  0.58844198     0.44170
Cu789      Cu  0.89550902  0.34636567  0.62619877     0.41990
Cu790      Cu  0.85082938  0.37047487  0.60338420     0.43880
N791        N  0.87560124  0.39737509  0.57602462    -0.34060
N792        N  0.85694082  0.39226213  0.58133087    -0.28310
C793        C  0.84370746  0.40328039  0.57029813    -0.04410
C794        C  0.85471199  0.41580910  0.55756840     0.07800
C795        C  0.87479202  0.41170700  0.56156319     0.01600
H796        H  0.82738111  0.40223694  0.57148335     0.09250
H797        H  0.88789306  0.41862545  0.55449700     0.08330
N798        N  0.84969103  0.34798035  0.62555211    -0.35510
N799        N  0.86586567  0.33913717  0.63344427    -0.27690
C800        C  0.85990667  0.32510060  0.64696798    -0.02930
C801        C  0.83895567  0.32511615  0.64779888     0.05680
C802        C  0.83299428  0.33986185  0.63403382     0.03770
H803        H  0.87016267  0.31580884  0.65577131     0.08880
H804        H  0.81765279  0.34422919  0.63024167     0.07710
N805        N  0.92350729  0.61786506  0.61556726    -0.26670
N806        N  0.92564150  0.60306382  0.60224817    -0.34530
C807        C  0.94547970  0.59941495  0.59948191     0.01670
C808        C  0.95622655  0.61254155  0.61166399     0.07690
C809        C  0.94195630  0.62405582  0.62169877    -0.05410
H810        H  0.95158488  0.58808778  0.58932578     0.08360
H811        H  0.94471365  0.63602107  0.63257039     0.09560
Cu812      Cu  0.90148907  0.58858493  0.58846446     0.44170
Cu813      Cu  0.89548077  0.62852557  0.62454135     0.41990
Cu814      Cu  0.85087158  0.60193555  0.60432168     0.43880
N815        N  0.87555897  0.57584957  0.57625046    -0.34060
N816        N  0.85691013  0.58054239  0.58192908    -0.28310
C817        C  0.84367359  0.56953458  0.57089631    -0.04410
C818        C  0.85466813  0.55744858  0.55777616     0.07800
C819        C  0.87474316  0.56180235  0.56154919     0.01600
H820        H  0.82735291  0.57029737  0.57233220     0.09250
H821        H  0.88783808  0.55524655  0.55416798     0.08330
N822        N  0.84980350  0.62502435  0.62580390    -0.35510
N823        N  0.86587741  0.63512021  0.63230877    -0.27690
C824        C  0.85990142  0.64954777  0.64535801    -0.02930
C825        C  0.83912090  0.64831875  0.64742285     0.05680
C826        C  0.83318719  0.63257777  0.63489576     0.03770
H827        H  0.87002564  0.65983216  0.65315427     0.08880
H828        H  0.81790153  0.62719674  0.63235553     0.07710
N829        N  0.26649231  0.20765366  0.25193664    -0.26670
N830        N  0.25237681  0.20751347  0.26613713    -0.34530
C831        C  0.25752486  0.19404782  0.28054254     0.01670
C832        C  0.27593767  0.18548299  0.27528009     0.07690
C833        C  0.28114376  0.19445177  0.25701308    -0.05410
H834        H  0.24916794  0.19172050  0.29446802     0.08360
H835        H  0.29491892  0.19217552  0.24841198     0.09560
Cu836      Cu  0.22869274  0.22798049  0.26691976     0.44170
Cu837      Cu  0.26645414  0.22767931  0.22782947     0.41990
Cu838      Cu  0.22662251  0.26568367  0.22690752     0.43880
N839        N  0.20837150  0.25181267  0.26640572    -0.34060
N840        N  0.20697544  0.26513690  0.25147400    -0.28310
C841        C  0.19318026  0.27928416  0.25650801    -0.04410
C842        C  0.18586672  0.27478993  0.27565359     0.07800
C843        C  0.19583590  0.25731523  0.28147133     0.01600
H844        H  0.18984620  0.29263691  0.24756779     0.09250
H845        H  0.19464002  0.24957749  0.29589723     0.08330
N846        N  0.25127919  0.26562139  0.20735771    -0.35510
N847        N  0.26566113  0.25170524  0.20771982    -0.27690
C848        C  0.28044801  0.25706050  0.19479026    -0.02930
C849        C  0.27529916  0.27538875  0.18583764     0.05680
C850        C  0.25658274  0.28025774  0.19417257     0.03770
H851        H  0.29434050  0.24858942  0.19291602     0.08880
H852        H  0.24784054  0.29389594  0.19171140     0.07710
C853        C  0.84395308  0.44307710  0.44291402    -0.12660
C854        C  0.84739789  0.43032318  0.43025660    -0.14220
C855        C  0.84389556  0.44304290  0.53031245    -0.12660
C856        C  0.84734191  0.43032787  0.54303111    -0.14220
C857        C  0.84393054  0.53050556  0.44286275    -0.12660
C858        C  0.84740172  0.54319763  0.43012427    -0.14220
C859        C  0.84730520  0.54304828  0.54313438    -0.12660
C860        C  0.84387556  0.53041689  0.53034961    -0.14220
C861        C  0.97787279  0.61387171  0.61316613    -0.12660
C862        C  0.99612430  0.61378796  0.61319604    -0.14220
C863        C  0.97795611  0.35989660  0.61339071    -0.12660
C864        C  0.99621233  0.35996291  0.61342772    -0.14220
C865        C  0.99642034  0.61341836  0.35936423    -0.12660
C866        C  0.97816124  0.61349496  0.35949377    -0.14220
C867        C  0.16565055  0.30372052  0.32065399    -0.12730
C868        C  0.14808384  0.31256542  0.31256379     0.09420
C869        C  0.14289931  0.30876442  0.29225813    -0.12730
C870        C  0.15531089  0.29660444  0.28013441    -0.12730
C871        C  0.17269326  0.28754535  0.28834292     0.09420
C872        C  0.17769403  0.29105411  0.30871883    -0.12730
H873        H  0.16987919  0.30633198  0.33629759     0.13400
H874        H  0.12945787  0.31549921  0.28567028     0.13400
H875        H  0.15122321  0.29405415  0.26443760     0.13400
H876        H  0.19114944  0.28431816  0.31528460     0.13400
C877        C  0.97800476  0.35980582  0.35996794    -0.12660
C878        C  0.99626285  0.35975833  0.36002499    -0.14220
C879        C  0.13041627  0.44295299  0.44303281    -0.12660
C880        C  0.12696154  0.43014748  0.43042505    -0.14220
C881        C  0.13041421  0.44315121  0.53031725    -0.12660
C882        C  0.12695892  0.43036851  0.54296565    -0.14220
C883        C  0.13040230  0.53047819  0.44275060    -0.12660
C884        C  0.12697216  0.54321997  0.43005575    -0.14220
C885        C  0.13030051  0.53069151  0.53008673    -0.12660
C886        C  0.12681713  0.54349990  0.54267932    -0.14220
C887        C  0.82183440  0.68326029  0.28292807    -0.12730
C888        C  0.80155224  0.68644670  0.28822805     0.09420
C889        C  0.79354835  0.67695829  0.30546760    -0.12730
C890        C  0.80571461  0.66428887  0.31730966    -0.12730
C891        C  0.82618606  0.66117780  0.31224786     0.09420
C892        C  0.83412736  0.67086455  0.29494190    -0.12730
H893        H  0.82815649  0.69045341  0.26957144     0.13400
H894        H  0.77782029  0.67920578  0.30962347     0.13400
H895        H  0.79912173  0.65718506  0.33055216     0.13400
H896        H  0.84975270  0.66868436  0.29047239     0.13400
C897        C  0.65275406  0.80884259  0.30322145    -0.12730
C898        C  0.66127795  0.82576209  0.31287917     0.09420
C899        C  0.68184603  0.83031045  0.30974686    -0.12730
C900        C  0.69380767  0.81786688  0.29746536    -0.12730
C901        C  0.68519793  0.80111964  0.28760370     0.09420
C902        C  0.66455308  0.79679604  0.29041993    -0.12730
H903        H  0.63689828  0.80513152  0.30532818     0.13400
H904        H  0.68874586  0.84325559  0.31711417     0.13400
H905        H  0.70971816  0.82142608  0.29547907     0.13400
H906        H  0.65766732  0.78382663  0.28308107     0.13400
C907        C  0.44350229  0.84360377  0.44300639    -0.12660
C908        C  0.43091458  0.84705587  0.43017614    -0.14220
C909        C  0.43028674  0.84708129  0.54305840    -0.12660
C910        C  0.44308692  0.84362816  0.53044275    -0.14220
C911        C  0.53077488  0.84353365  0.44327887    -0.12660
C912        C  0.54344274  0.84695734  0.43050949    -0.14220
C913        C  0.54332812  0.84698914  0.54344509    -0.12660
C914        C  0.53059664  0.84356874  0.53074751    -0.14220
C915        C  0.61357842  0.99578849  0.61399900    -0.12660
C916        C  0.61353399  0.97752495  0.61410772    -0.14220
C917        C  0.35986477  0.97767173  0.61342128    -0.12660
C918        C  0.35987042  0.99592827  0.61346254    -0.14220
C919        C  0.61359208  0.99590490  0.35998560    -0.12660
C920        C  0.61377094  0.97764378  0.36003454    -0.14220
C921        C  0.29131324  0.14619567  0.31415447    -0.12730
C922        C  0.31250713  0.14744572  0.31324673     0.09420
C923        C  0.32167371  0.16080125  0.29948957    -0.12730
C924        C  0.30976471  0.17274582  0.28668018    -0.12730
C925        C  0.28850777  0.17191290  0.28787976     0.09420
C926        C  0.27938321  0.15856740  0.30176826    -0.12730
H927        H  0.28402689  0.13591795  0.32470939     0.13400
H928        H  0.33803703  0.16180941  0.29852213     0.13400
H929        H  0.31720386  0.18301239  0.27624315     0.13400
H930        H  0.26303704  0.15758745  0.30293680     0.13400
C931        C  0.36005144  0.99596003  0.36019299    -0.12660
C932        C  0.36013434  0.97770414  0.36007293    -0.14220
C933        C  0.44311555  0.13011507  0.44336551    -0.12660
C934        C  0.43039646  0.12664964  0.43067366    -0.14220
C935        C  0.44327884  0.13015082  0.53073444    -0.12660
C936        C  0.43055058  0.12671446  0.54343662    -0.14220
C937        C  0.54318613  0.12658163  0.43039456    -0.12660
C938        C  0.53051764  0.13003816  0.44314081    -0.14220
C939        C  0.53068512  0.13002437  0.53061895    -0.12660
C940        C  0.54337480  0.12655327  0.54334673    -0.14220
C941        C  0.44326019  0.44305848  0.84354838    -0.12660
C942        C  0.43045165  0.43042761  0.84699007    -0.14220
C943        C  0.53067893  0.44299259  0.84357702    -0.12660
C944        C  0.54330287  0.43020081  0.84702934    -0.14220
C945        C  0.43055739  0.54309679  0.84694009    -0.12660
C946        C  0.44329776  0.53041511  0.84351907    -0.14220
C947        C  0.53071867  0.53050947  0.84356218    -0.12660
C948        C  0.54339956  0.54325197  0.84702081    -0.14220
C949        C  0.67164276  0.65207575  0.16433104    -0.12730
C950        C  0.66146769  0.66067287  0.14775198     0.09420
C951        C  0.66394893  0.68140602  0.14355507    -0.12730
C952        C  0.67609468  0.69346214  0.15604481    -0.12730
C953        C  0.68646257  0.68479765  0.17246854     0.09420
C954        C  0.68430734  0.66398792  0.17641103    -0.12730
H955        H  0.67002780  0.63609055  0.16775026     0.13400
H956        H  0.65617027  0.68834349  0.13086360     0.13400
H957        H  0.67757311  0.70949451  0.15277360     0.13400
H958        H  0.69204212  0.65704435  0.18912501     0.13400
C959        C  0.61402291  0.61349132  0.97766508    -0.12660
C960        C  0.61406843  0.61352520  0.99592269    -0.14220
C961        C  0.61372476  0.35963679  0.97765976    -0.12660
C962        C  0.61362236  0.35951400  0.99591370    -0.14220
C963        C  0.36026962  0.61328909  0.99584998    -0.12660
C964        C  0.36020308  0.61327936  0.97759114    -0.14220
C965        C  0.32008510  0.29406098  0.15474894    -0.12730
C966        C  0.31292418  0.31273841  0.14772613     0.09420
C967        C  0.29327844  0.31899221  0.15267027    -0.12730
C968        C  0.28093824  0.30677110  0.16483965    -0.12730
C969        C  0.28805881  0.28803248  0.17220432     0.09420
C970        C  0.30776009  0.28177037  0.16684105    -0.12730
H971        H  0.33521304  0.28900170  0.15085202     0.13400
H972        H  0.28754171  0.33336891  0.14717139     0.13400
H973        H  0.26588590  0.31212395  0.16846957     0.13400
H974        H  0.31384974  0.26748148  0.17206026     0.13400
C975        C  0.36023735  0.35991712  0.99597032    -0.12660
C976        C  0.36022109  0.35984217  0.97770742    -0.14220
C977        C  0.44348384  0.44294385  0.13007301    -0.12660
C978        C  0.43079519  0.43020798  0.12662634    -0.14220
C979        C  0.53087066  0.44291079  0.13001762    -0.12660
C980        C  0.54357975  0.43021670  0.12654495    -0.14220
C981        C  0.44355232  0.53038238  0.13006664    -0.12660
C982        C  0.43083142  0.54307993  0.12661365    -0.14220
C983        C  0.54388678  0.54285238  0.12660742    -0.12660
C984        C  0.53106400  0.53024167  0.13005084    -0.14220
C985        C  0.80116488  0.28601587  0.30994099    -0.12730
C986        C  0.80165232  0.28754012  0.28868827     0.09420
C987        C  0.81479136  0.30163200  0.27956769    -0.12730
C988        C  0.82727367  0.31390634  0.29149119    -0.12730
C989        C  0.82635150  0.31267699  0.31268837     0.09420
C990        C  0.81322312  0.29870533  0.32185343    -0.12730
H991        H  0.79107469  0.27541880  0.31739098     0.13400
H992        H  0.81552232  0.30305576  0.26322660     0.13400
H993        H  0.83737426  0.32462964  0.28420518     0.13400
H994        H  0.81246650  0.29749313  0.33821639     0.13400
C995        C  0.68248179  0.30853977  0.17726791    -0.12730
C996        C  0.68602228  0.28813665  0.17242540     0.09420
C997        C  0.67688100  0.27975586  0.15517376    -0.12730
C998        C  0.66459713  0.29173951  0.14273264    -0.12730
C999        C  0.66076376  0.31207085  0.14776718     0.09420
C1000       C  0.66969872  0.32033655  0.16519792    -0.12730
H1001       H  0.68926841  0.31522961  0.19063141     0.13400
H1002       H  0.67944617  0.26402813  0.15122090     0.13400
H1003       H  0.65779046  0.28502633  0.12939374     0.13400
H1004       H  0.66705986  0.33600733  0.16930081     0.13400
C1005       C  0.67017684  0.18109361  0.29900074    -0.12730
C1006       C  0.68551771  0.17238553  0.28722339     0.09420
C1007       C  0.68867132  0.15144165  0.28790087    -0.12730
C1008       C  0.67647631  0.13922310  0.30020495    -0.12730
C1009       C  0.66099581  0.14781212  0.31215170     0.09420
C1010       C  0.65803855  0.16893038  0.31141750    -0.12730
H1011       H  0.66767127  0.19732207  0.29863344     0.13400
H1012       H  0.70054832  0.14456469  0.27888949     0.13400
H1013       H  0.67936814  0.12309478  0.30039863     0.13400
H1014       H  0.64629186  0.17612947  0.32028540     0.13400
C1015       C  0.29230333  0.69154044  0.82086691    -0.12730
C1016       C  0.28822125  0.68579947  0.80085794     0.09420
C1017       C  0.29653403  0.66782306  0.79320695    -0.12730
C1018       C  0.30896462  0.65575111  0.80539183    -0.12730
C1019       C  0.31291261  0.66124918  0.82558908     0.09420
C1020       C  0.30437150  0.67924404  0.83322922    -0.12730
H1021       H  0.28594018  0.70538619  0.82697290     0.13400
H1022       H  0.29354581  0.66324585  0.77772560     0.13400
H1023       H  0.31517730  0.64195529  0.79907407     0.13400
H1024       H  0.30721859  0.68400245  0.84866094     0.13400
C1025       C  0.29300513  0.79505173  0.66585734    -0.12730
C1026       C  0.28823484  0.80096580  0.68571652     0.09420
C1027       C  0.29583879  0.81929849  0.69326992    -0.12730
C1028       C  0.30781652  0.83175290  0.68096245    -0.12730
C1029       C  0.31285868  0.82571510  0.66115849     0.09420
C1030       C  0.30546525  0.80719002  0.65376773    -0.12730
H1031       H  0.28734645  0.78086993  0.65982104     0.13400
H1032       H  0.29225717  0.82408973  0.70855940     0.13400
H1033       H  0.31341848  0.84592698  0.68704691     0.13400
H1034       H  0.30901960  0.80225932  0.63852414     0.13400
C1035       C  0.17298152  0.68735364  0.66348875    -0.12730
C1036       C  0.17234616  0.68572124  0.68473503     0.09420
C1037       C  0.15904346  0.67169059  0.69370052    -0.12730
C1038       C  0.14655249  0.65957576  0.68162333    -0.12730
C1039       C  0.14762991  0.66091957  0.66043751     0.09420
C1040       C  0.16090857  0.67483838  0.65143295    -0.12730
H1041       H  0.18319684  0.69789705  0.65613807     0.13400
H1042       H  0.15819593  0.67018868  0.71002859     0.13400
H1043       H  0.13632734  0.64888387  0.68877894     0.13400
H1044       H  0.16178178  0.67613708  0.63508149     0.13400
C1045       C  0.28734056  0.30965271  0.79946028    -0.12730
C1046       C  0.28781111  0.28840712  0.80114134     0.09420
C1047       C  0.30084054  0.27941660  0.81538602    -0.12730
C1048       C  0.31301374  0.29146665  0.82786822    -0.12730
C1049       C  0.31280998  0.31263979  0.82584548     0.09420
C1050       C  0.29997243  0.32165498  0.81151284    -0.12730
H1051       H  0.27756746  0.31698450  0.78850068     0.13400
H1052       H  0.30143936  0.26308985  0.81702769     0.13400
H1053       H  0.32286202  0.28426009  0.83885942     0.13400
H1054       H  0.29953688  0.33799079  0.80984684     0.13400
C1055       C  0.15580082  0.29772184  0.69360826    -0.12730
C1056       C  0.17269630  0.28802145  0.68512663     0.09420
C1057       C  0.17712367  0.29084973  0.66449776    -0.12730
C1058       C  0.16502751  0.30348334  0.65258312    -0.12730
C1059       C  0.14797832  0.31299144  0.66097538     0.09420
C1060       C  0.14332440  0.30986992  0.68152582    -0.12730
H1061       H  0.15214828  0.29570662  0.70949530     0.13400
H1062       H  0.19020429  0.28364039  0.65769439     0.13400
H1063       H  0.16881346  0.30558312  0.63674146     0.13400
H1064       H  0.13026742  0.31713526  0.68831365     0.13400
C1065       C  0.29393709  0.15318566  0.69267536    -0.12730
C1066       C  0.28850986  0.17262030  0.68606493     0.09420
C1067       C  0.29538986  0.17963144  0.66720549    -0.12730
C1068       C  0.30777549  0.16743594  0.65514982    -0.12730
C1069       C  0.31305150  0.14782042  0.66154738     0.09420
C1070       C  0.30590567  0.14075122  0.68037912    -0.12730
H1071       H  0.28868263  0.14756260  0.70719449     0.13400
H1072       H  0.29137105  0.19466319  0.66193269     0.13400
H1073       H  0.31291722  0.17324277  0.64067863     0.13400
H1074       H  0.30982267  0.12574883  0.68576445     0.13400
C1075       C  0.69381055  0.29780031  0.81782932    -0.12730
C1076       C  0.68522038  0.28790118  0.80110218     0.09420
C1077       C  0.66452478  0.29048529  0.79689950    -0.12730
C1078       C  0.65265204  0.30310083  0.80902755    -0.12730
C1079       C  0.66115940  0.31282781  0.82589362     0.09420
C1080       C  0.68177389  0.30992414  0.83035066    -0.12730
H1081       H  0.70975382  0.29597579  0.82130439     0.13400
H1082       H  0.65763805  0.28311980  0.78395054     0.13400
H1083       H  0.63675839  0.30503174  0.80540388     0.13400
H1084       H  0.68864274  0.31735610  0.84327124     0.13400
C1085       C  0.82048488  0.28119896  0.68002606    -0.12730
C1086       C  0.80115423  0.28790601  0.68565937     0.09420
C1087       C  0.79419704  0.30677925  0.67878111    -0.12730
C1088       C  0.80635871  0.31875003  0.66620067    -0.12730
C1089       C  0.82588742  0.31225160  0.66074476     0.09420
C1090       C  0.83288332  0.29340273  0.66788305    -0.12730
H1091       H  0.82605564  0.26665321  0.68524323     0.13400
H1092       H  0.77923511  0.31211283  0.68293484     0.13400
H1093       H  0.80060538  0.33323369  0.66105194     0.13400
H1094       H  0.84780478  0.28792717  0.66382547     0.13400
C1095       C  0.69262046  0.15305124  0.68006755    -0.12730
C1096       C  0.68624335  0.17263698  0.68516073     0.09420
C1097       C  0.66756210  0.17978839  0.67799572    -0.12730
C1098       C  0.65544832  0.16757362  0.66567239    -0.12730
C1099       C  0.66160256  0.14780506  0.66073293     0.09420
C1100       C  0.68026594  0.14061033  0.66815158    -0.12730
H1101       H  0.70699301  0.14731257  0.68555601     0.13400
H1102       H  0.66246445  0.19493261  0.68176627     0.13400
H1103       H  0.64111442  0.17349436  0.66032342     0.13400
H1104       H  0.68547809  0.12549272  0.66450422     0.13400
C1105       C  0.28028271  0.81734023  0.29837636    -0.12730
C1106       C  0.28904697  0.80117374  0.28771857     0.09420
C1107       C  0.30993195  0.79752748  0.28960443    -0.12730
C1108       C  0.32181270  0.80962667  0.30225697    -0.12730
C1109       C  0.31310553  0.82592196  0.31273309     0.09420
C1110       C  0.29230166  0.82984142  0.31054857    -0.12730
H1111       H  0.26420531  0.82041225  0.29710866     0.13400
H1112       H  0.31699057  0.78502222  0.28166813     0.13400
H1113       H  0.33785641  0.80643828  0.30364196     0.13400
H1114       H  0.28529378  0.84232695  0.31856685     0.13400
C1115       C  0.30645864  0.67756306  0.17974912    -0.12730
C1116       C  0.28802787  0.68514541  0.17239637     0.09420
C1117       C  0.28179453  0.68031104  0.15270142    -0.12730
C1118       C  0.29405648  0.66823117  0.14034421    -0.12730
C1119       C  0.31248559  0.66040847  0.14771949     0.09420
C1120       C  0.31848444  0.66509425  0.16760330    -0.12730
H1121       H  0.31142238  0.68112625  0.19498928     0.13400
H1122       H  0.26759847  0.68610689  0.14682519     0.13400
H1123       H  0.28894825  0.66478793  0.12514322     0.13400
H1124       H  0.33263264  0.65943487  0.17367672     0.13400
C1125       C  0.15880339  0.67273734  0.27885871    -0.12730
C1126       C  0.17293223  0.68583393  0.28792238     0.09420
C1127       C  0.17451374  0.68626501  0.30917018    -0.12730
C1128       C  0.16247878  0.67352450  0.32110522    -0.12730
C1129       C  0.14827266  0.66061279  0.31201404     0.09420
C1130       C  0.14634363  0.66044618  0.29084094    -0.12730
H1131       H  0.15723965  0.67216816  0.26252776     0.13400
H1132       H  0.18538587  0.69608650  0.31655685     0.13400
H1133       H  0.16405980  0.67392964  0.33744615     0.13400
H1134       H  0.13544256  0.65054077  0.28358416     0.13400
C1135       C  0.79799391  0.66394873  0.68394101    -0.12730
C1136       C  0.80147818  0.68488591  0.68561474     0.09420
C1137       C  0.81748620  0.69373141  0.67473645    -0.12730
C1138       C  0.82997664  0.68174895  0.66252992    -0.12730
C1139       C  0.82619328  0.66089598  0.66053139     0.09420
C1140       C  0.81007357  0.65209827  0.67124945    -0.12730
H1141       H  0.78561273  0.65682850  0.69205186     0.13400
H1142       H  0.82042968  0.70985235  0.67583946     0.13400
H1143       H  0.84233263  0.68881843  0.65432976     0.13400
H1144       H  0.80700259  0.63601279  0.67000910     0.13400
C1145       C  0.67608734  0.81765076  0.69414105    -0.12730
C1146       C  0.68597519  0.80088991  0.68559894     0.09420
C1147       C  0.68316713  0.79654687  0.66495549    -0.12730
C1148       C  0.67038701  0.80859179  0.65310145    -0.12730
C1149       C  0.66072187  0.82552978  0.66155852     0.09420
C1150       C  0.66381357  0.83008295  0.68212484    -0.12730
H1151       H  0.67807980  0.82126164  0.71003159     0.13400
H1152       H  0.69053017  0.78358632  0.65809436     0.13400
H1153       H  0.66831833  0.80487387  0.63724800     0.13400
H1154       H  0.65644376  0.84304402  0.68897747     0.13400
C1155       C  0.68027028  0.69262795  0.82056478    -0.12730
C1156       C  0.68536593  0.68626061  0.80097876     0.09420
C1157       C  0.67803946  0.66766855  0.79375964    -0.12730
C1158       C  0.66556988  0.65561886  0.80592586    -0.12730
C1159       C  0.66064272  0.66175333  0.82570472     0.09420
C1160       C  0.66820280  0.68033907  0.83295282    -0.12730
H1161       H  0.68587482  0.70693989  0.82634516     0.13400
H1162       H  0.68180511  0.66259137  0.77860685     0.13400
H1163       H  0.66010803  0.64134423  0.79996388     0.13400
H1164       H  0.66456327  0.68553900  0.84807649     0.13400
loop_ 
_geom_bond_atom_site_label_1 
_geom_bond_atom_site_label_2 
_geom_bond_distance 
_geom_bond_site_symmetry_2 
_ccdc_geom_bond_type 
N1            N2   1.323       .  A
N1            C5   1.344       .  A
N1           Cu9   2.070       .  S
N2            C3   1.346       .  A
N2           Cu8   2.078       .  S
C3            C4   1.384       .  A
C3            H6   1.082       .  S
C4            C5   1.382       .  A
C4         C1146   1.474       .  S
C5            H7   1.082       .  S
Cu8          N11   2.078       .  S
Cu9          N19   2.069       .  S
Cu10         N12   2.061       .  S
Cu10         N18   2.060       .  S
N11          N12   1.322       .  A
N11          C15   1.347       .  A
N12          C13   1.342       .  A
C13          C14   1.379       .  A
C13          H16   1.082       .  S
C14          C15   1.383       .  A
C14        C1156   1.468       .  S
C15          H17   1.082       .  S
N18          N19   1.321       .  A
N18          C22   1.342       .  A
N19          C20   1.345       .  A
C20          C21   1.384       .  A
C20          H23   1.082       .  S
C21          C22   1.382       .  A
C21        C1136   1.473       .  S
C22          H24   1.082       .  S
N25          N26   1.323       .  A
N25          C29   1.344       .  A
N25         Cu33   2.072       .  S
N26          C27   1.345       .  A
N26         Cu32   2.077       .  S
C27          C28   1.385       .  A
C27          H30   1.082       .  S
C28          C29   1.384       .  A
C28        C1126   1.478       .  S
C29          H31   1.082       .  S
Cu32         N35   2.076       .  S
Cu33         N43   2.071       .  S
Cu34         N36   2.062       .  S
Cu34         N42   2.061       .  S
N35          N36   1.322       .  A
N35          C39   1.346       .  A
N36          C37   1.342       .  A
C37          C38   1.379       .  A
C37          H40   1.082       .  S
C38          C39   1.383       .  A
C38        C1116   1.468       .  S
C39          H41   1.082       .  S
N42          N43   1.321       .  A
N42          C46   1.342       .  A
N43          C44   1.345       .  A
C44          C45   1.384       .  A
C44          H47   1.082       .  S
C45          C46   1.382       .  A
C45        C1106   1.473       .  S
C46          H48   1.082       .  S
N49          N50   1.321       .  A
N49          C53   1.345       .  A
N49         Cu57   2.069       .  S
N50          C51   1.342       .  A
N50         Cu56   2.060       .  S
C51          C52   1.382       .  A
C51          H54   1.082       .  S
C52          C53   1.384       .  A
C52        C1076   1.471       .  S
C53          H55   1.082       .  S
Cu56         N59   2.060       .  S
Cu57         N67   2.070       .  S
Cu58         N60   2.079       .  S
Cu58         N66   2.079       .  S
N59          N60   1.322       .  A
N59          C63   1.342       .  A
N60          C61   1.347       .  A
C61          C62   1.384       .  A
C61          H64   1.082       .  S
C62          C63   1.379       .  A
C62        C1096   1.468       .  S
C63          H65   1.082       .  S
N66          N67   1.324       .  A
N66          C70   1.346       .  A
N67          C68   1.344       .  A
C68          C69   1.380       .  A
C68          H71   1.082       .  S
C69          C70   1.382       .  A
C69        C1086   1.469       .  S
C70          H72   1.082       .  S
N73          N74   1.321       .  A
N73          C77   1.345       .  A
N73         Cu81   2.071       .  S
N74          C75   1.342       .  A
N74         Cu80   2.059       .  S
C75          C76   1.381       .  A
C75          H78   1.082       .  S
C76          C77   1.384       .  A
C76        C1056   1.471       .  S
C77          H79   1.082       .  S
Cu80         N83   2.060       .  S
Cu81         N91   2.072       .  S
Cu82         N84   2.078       .  S
Cu82         N90   2.079       .  S
N83          N84   1.322       .  A
N83          C87   1.342       .  A
N84          C85   1.347       .  A
C85          C86   1.384       .  A
C85          H88   1.082       .  S
C86          C87   1.379       .  A
C86        C1066   1.468       .  S
C87          H89   1.082       .  S
N90          N91   1.323       .  A
N90          C94   1.345       .  A
N91          C92   1.344       .  A
C92          C93   1.384       .  A
C92          H95   1.082       .  S
C93          C94   1.385       .  A
C93        C1046   1.478       .  S
C94          H96   1.082       .  S
N97          N98   1.322       .  A
N97         C101   1.346       .  A
N97        Cu105   2.079       .  S
N98          C99   1.342       .  A
N98        Cu104   2.061       .  S
C99         C100   1.379       .  A
C99         H102   1.082       .  S
C100        C101   1.384       .  A
C100       C1026   1.470       .  S
C101        H103   1.082       .  S
Cu104       N107   2.060       .  S
Cu105       N115   2.079       .  S
Cu106       N108   2.068       .  S
Cu106       N114   2.069       .  S
N107        N108   1.320       .  A
N107        C111   1.342       .  A
N108        C109   1.344       .  A
C109        C110   1.386       .  A
C109        H112   1.082       .  S
C110        C111   1.384       .  A
C110       C1036   1.477       .  S
C111        H113   1.082       .  S
N114        N115   1.323       .  A
N114        C118   1.343       .  A
N115        C116   1.346       .  A
C116        C117   1.382       .  A
C116        H119   1.082       .  S
C117        C118   1.379       .  A
C117       C1016   1.468       .  S
C118        H120   1.082       .  S
N121        N122   1.323       .  A
N121        C125   1.344       .  A
N121       Cu129   2.069       .  S
N122        C123   1.345       .  A
N122       Cu128   2.072       .  S
C123        C124   1.380       .  A
C123        H126   1.082       .  S
C124        C125   1.379       .  A
C124       C1006   1.464       .  S
C125        H127   1.082       .  S
Cu128       N131   2.071       .  S
Cu129       N139   2.069       .  S
Cu130       N132   2.067       .  S
Cu130       N138   2.067       .  S
N131        N132   1.322       .  A
N131        C135   1.345       .  A
N132        C133   1.343       .  A
C133        C134   1.382       .  A
C133        H136   1.082       .  S
C134        C135   1.383       .  A
C134        C996   1.471       .  S
C135        H137   1.082       .  S
N138        N139   1.321       .  A
N138        C142   1.344       .  A
N139        C140   1.344       .  A
C140        C141   1.385       .  A
C140        H143   1.082       .  S
C141        C142   1.384       .  A
C141        C986   1.477       .  S
C142        H144   1.082       .  S
O145       Cu153   2.001       .  S
O145        C155   1.275       .  A
O146       Cu153   2.001       .  S
O146        C156   1.275       .  A
O147       Cu153   2.001       .  S
O147        C157   1.275       .  A
O148       Cu153   2.001       .  S
O148        C158   1.275       .  A
O149       Cu154   2.026       .  S
O149        C158   1.278       .  A
O150       Cu154   2.026       .  S
O150        C157   1.278       .  A
O151       Cu154   2.025       .  S
O151        C156   1.278       .  A
O152       Cu154   2.025       .  S
O152        C155   1.278       .  A
Cu153      Cu154   2.379       .  S
C155        C984   1.437       .  S
C156        C977   1.438       .  S
C157        C981   1.438       .  S
C158        C979   1.438       .  S
N159        N160   1.322       .  A
N159        C163   1.346       .  A
N159       Cu167   2.066       .  S
N160        C161   1.344       .  A
N160       Cu166   2.070       .  S
C161        C162   1.379       .  A
C161        H164   1.082       .  S
C162        C163   1.380       .  A
C162        C975   1.435   1_554  S
C163        H165   1.082       .  S
Cu166       N169   2.070       .  S
Cu167       N177   2.067       .  S
Cu168       N170   2.082       .  S
Cu168       N176   2.082       .  S
N169        N170   1.323       .  A
N169        C173   1.343       .  A
N170        C171   1.349       .  A
C171        C172   1.383       .  A
C171        H174   1.082       .  S
C172        C173   1.378       .  A
C172        C978   1.439       .  S
C173        H175   1.082       .  S
N176        N177   1.324       .  A
N176        C180   1.346       .  A
N177        C178   1.344       .  A
C178        C179   1.377       .  A
C178        H181   1.082       .  S
C179        C180   1.381       .  A
C179        C966   1.464       .  S
C180        H182   1.082       .  S
N183        N184   1.322       .  A
N183        C187   1.346       .  A
N183       Cu191   2.066       .  S
N184        C185   1.344       .  A
N184       Cu190   2.069       .  S
C185        C186   1.378       .  A
C185        H188   1.082       .  S
C186        C187   1.380       .  A
C186        C963   1.435   1_554  S
C187        H189   1.082       .  S
Cu190       N193   2.070       .  S
Cu191       N201   2.066       .  S
Cu192       N194   2.083       .  S
Cu192       N200   2.084       .  S
N193        N194   1.323       .  A
N193        C197   1.343       .  A
N194        C195   1.349       .  A
C195        C196   1.383       .  A
C195        H198   1.082       .  S
C196        C197   1.378       .  A
C196        C982   1.440       .  S
C197        H199   1.082       .  S
N200        N201   1.323       .  A
N200        C204   1.346       .  A
N201        C202   1.343       .  A
C202        C203   1.383       .  A
C202        H205   1.082       .  S
C203        C204   1.387       .  A
C203       C1119   1.480       .  S
C204        H206   1.082       .  S
N207        N208   1.322       .  A
N207        C211   1.346       .  A
N207       Cu215   2.066       .  S
N208        C209   1.343       .  A
N208       Cu214   2.069       .  S
C209        C210   1.378       .  A
C209        H212   1.082       .  S
C210        C211   1.379       .  A
C210        C962   1.434   1_554  S
C211        H213   1.082       .  S
Cu214       N217   2.070       .  S
Cu215       N225   2.066       .  S
Cu216       N218   2.082       .  S
Cu216       N224   2.082       .  S
N217        N218   1.323       .  A
N217        C221   1.343       .  A
N218        C219   1.349       .  A
C219        C220   1.383       .  A
C219        H222   1.082       .  S
C220        C221   1.378       .  A
C220        C980   1.439       .  S
C221        H223   1.082       .  S
N224        N225   1.323       .  A
N224        C228   1.345       .  A
N225        C226   1.343       .  A
C226        C227   1.381       .  A
C226        H229   1.082       .  S
C227        C228   1.385       .  A
C227        C999   1.474       .  S
C228        H230   1.082       .  S
N231        N232   1.322       .  A
N231        C235   1.346       .  A
N231       Cu239   2.067       .  S
N232        C233   1.343       .  A
N232       Cu238   2.068       .  S
C233        C234   1.378       .  A
C233        H236   1.082       .  S
C234        C235   1.380       .  A
C234        C960   1.434   1_554  S
C235        H237   1.082       .  S
Cu238       N241   2.068       .  S
Cu239       N249   2.068       .  S
Cu240       N242   2.082       .  S
Cu240       N248   2.082       .  S
N241        N242   1.323       .  A
N241        C245   1.343       .  A
N242        C243   1.349       .  A
C243        C244   1.383       .  A
C243        H246   1.082       .  S
C244        C245   1.378       .  A
C244        C983   1.439       .  S
C245        H247   1.082       .  S
N248        N249   1.324       .  A
N248        C252   1.346       .  A
N249        C250   1.343       .  A
C250        C251   1.381       .  A
C250        H253   1.082       .  S
C251        C252   1.384       .  A
C251        C950   1.473       .  S
C252        H254   1.082       .  S
O255       Cu263   2.001       .  S
O255        C265   1.275       .  A
O256       Cu263   2.001       .  S
O256        C266   1.275       .  A
O257       Cu263   2.001       .  S
O257        C267   1.275       .  A
O258       Cu263   2.001       .  S
O258        C268   1.275       .  A
O259       Cu264   2.025       .  S
O259        C268   1.278       .  A
O260       Cu264   2.026       .  S
O260        C267   1.278       .  A
O261       Cu264   2.025       .  S
O261        C266   1.278       .  A
O262       Cu264   2.026       .  S
O262        C265   1.278       .  A
Cu263      Cu264   2.378       .  S
C265        C946   1.438       .  S
C266        C943   1.438       .  S
C267        C947   1.438       .  S
C268        C941   1.438       .  S
N269        N270   1.322       .  A
N269        C273   1.346       .  A
N269       Cu277   2.069       .  S
N270        C271   1.343       .  A
N270       Cu276   2.068       .  S
C271        C272   1.378       .  A
C271        H274   1.082       .  S
C272        C273   1.380       .  A
C272        C976   1.435       .  S
C273        H275   1.082       .  S
Cu276       N279   2.068       .  S
Cu277       N287   2.070       .  S
Cu278       N280   2.084       .  S
Cu278       N286   2.084       .  S
N279        N280   1.323       .  A
N279        C283   1.343       .  A
N280        C281   1.349       .  A
C281        C282   1.383       .  A
C281        H284   1.082       .  S
C282        C283   1.378       .  A
C282        C942   1.440       .  S
C283        H285   1.082       .  S
N286        N287   1.324       .  A
N286        C290   1.346       .  A
N287        C288   1.344       .  A
C288        C289   1.380       .  A
C288        H291   1.082       .  S
C289        C290   1.384       .  A
C289       C1049   1.471       .  S
C290        H292   1.082       .  S
N293        N294   1.322       .  A
N293        C297   1.346       .  A
N293       Cu301   2.067       .  S
N294        C295   1.343       .  A
N294       Cu300   2.069       .  S
C295        C296   1.378       .  A
C295        H298   1.082       .  S
C296        C297   1.380       .  A
C296        C964   1.435       .  S
C297        H299   1.082       .  S
Cu300       N303   2.069       .  S
Cu301       N311   2.068       .  S
Cu302       N304   2.084       .  S
Cu302       N310   2.084       .  S
N303        N304   1.323       .  A
N303        C307   1.343       .  A
N304        C305   1.349       .  A
C305        C306   1.383       .  A
C305        H308   1.082       .  S
C306        C307   1.378       .  A
C306        C945   1.440       .  S
C307        H309   1.082       .  S
N310        N311   1.323       .  A
N310        C314   1.346       .  A
N311        C312   1.343       .  A
C312        C313   1.384       .  A
C312        H315   1.082       .  S
C313        C314   1.388       .  A
C313       C1019   1.482       .  S
C314        H316   1.082       .  S
N317        N318   1.322       .  A
N317        C321   1.346       .  A
N317       Cu325   2.065       .  S
N318        C319   1.343       .  A
N318       Cu324   2.069       .  S
C319        C320   1.378       .  A
C319        H322   1.082       .  S
C320        C321   1.379       .  A
C320        C961   1.434       .  S
C321        H323   1.082       .  S
Cu324       N327   2.069       .  S
Cu325       N335   2.065       .  S
Cu326       N328   2.082       .  S
Cu326       N334   2.082       .  S
N327        N328   1.323       .  A
N327        C331   1.343       .  A
N328        C329   1.349       .  A
C329        C330   1.383       .  A
C329        H332   1.082       .  S
C330        C331   1.378       .  A
C330        C944   1.439       .  S
C331        H333   1.082       .  S
N334        N335   1.323       .  A
N334        C338   1.345       .  A
N335        C336   1.343       .  A
C336        C337   1.380       .  A
C336        H339   1.082       .  S
C337        C338   1.384       .  A
C337       C1079   1.472       .  S
C338        H340   1.082       .  S
N341        N342   1.322       .  A
N341        C345   1.346       .  A
N341       Cu349   2.065       .  S
N342        C343   1.344       .  A
N342       Cu348   2.070       .  S
C343        C344   1.378       .  A
C343        H346   1.082       .  S
C344        C345   1.379       .  A
C344        C959   1.434       .  S
C345        H347   1.082       .  S
Cu348       N351   2.070       .  S
Cu349       N359   2.066       .  S
Cu350       N352   2.082       .  S
Cu350       N358   2.083       .  S
N351        N352   1.323       .  A
N351        C355   1.343       .  A
N352        C353   1.349       .  A
C353        C354   1.383       .  A
C353        H356   1.082       .  S
C354        C355   1.378       .  A
C354        C948   1.440       .  S
C355        H357   1.082       .  S
N358        N359   1.323       .  A
N358        C362   1.345       .  A
N359        C360   1.343       .  A
C360        C361   1.383       .  A
C360        H363   1.082       .  S
C361        C362   1.387       .  A
C361       C1159   1.479       .  S
C362        H364   1.082       .  S
O365       Cu373   2.025       .  S
O365        C375   1.278       .  A
O366       Cu373   2.025       .  S
O366        C376   1.278       .  A
O367       Cu373   2.026       .  S
O367        C377   1.278       .  A
O368       Cu373   2.026       .  S
O368        C378   1.278       .  A
O369       Cu374   2.001       .  S
O369        C378   1.275       .  A
O370       Cu374   2.001       .  S
O370        C377   1.275       .  A
O371       Cu374   2.001       .  S
O371        C376   1.275       .  A
O372       Cu374   2.001       .  S
O372        C375   1.275       .  A
Cu373      Cu374   2.379       .  S
C375        C938   1.438       .  S
C376        C935   1.437       .  S
C377        C939   1.438       .  S
C378        C933   1.438       .  S
N379        N380   1.322       .  A
N379        C383   1.346       .  A
N379       Cu387   2.065       .  S
N380        C381   1.343       .  A
N380       Cu386   2.069       .  S
C381        C382   1.378       .  A
C381        H384   1.082       .  S
C382        C383   1.379       .  A
C382        C931   1.434   1_545  S
C383        H385   1.082       .  S
Cu386       N389   2.070       .  S
Cu387       N397   2.065       .  S
Cu388       N390   2.082       .  S
Cu388       N396   2.082       .  S
N389        N390   1.323       .  A
N389        C393   1.343       .  A
N390        C391   1.349       .  A
C391        C392   1.383       .  A
C391        H394   1.082       .  S
C392        C393   1.378       .  A
C392        C934   1.439       .  S
C393        H395   1.082       .  S
N396        N397   1.324       .  A
N396        C400   1.346       .  A
N397        C398   1.343       .  A
C398        C399   1.378       .  A
C398        H401   1.082       .  S
C399        C400   1.383       .  A
C399        C922   1.468       .  S
C400        H402   1.082       .  S
N403        N404   1.322       .  A
N403        C407   1.346       .  A
N403       Cu411   2.065       .  S
N404        C405   1.344       .  A
N404       Cu410   2.070       .  S
C405        C406   1.379       .  A
C405        H408   1.082       .  S
C406        C407   1.379       .  A
C406        C919   1.435   1_545  S
C407        H409   1.082       .  S
Cu410       N413   2.070       .  S
Cu411       N421   2.066       .  S
Cu412       N414   2.083       .  S
Cu412       N420   2.083       .  S
N413        N414   1.323       .  A
N413        C417   1.343       .  A
N414        C415   1.349       .  A
C415        C416   1.383       .  A
C415        H418   1.082       .  S
C416        C417   1.378       .  A
C416        C937   1.439       .  S
C417        H419   1.082       .  S
N420        N421   1.322       .  A
N420        C424   1.345       .  A
N421        C422   1.342       .  A
C422        C423   1.385       .  A
C422        H425   1.081       .  S
C423        C424   1.390       .  A
C423       C1009   1.485       .  S
C424        H426   1.081       .  S
N427        N428   1.322       .  A
N427        C431   1.346       .  A
N427       Cu435   2.066       .  S
N428        C429   1.343       .  A
N428       Cu434   2.068       .  S
C429        C430   1.378       .  A
C429        H432   1.082       .  S
C430        C431   1.380       .  A
C430        C918   1.434   1_545  S
C431        H433   1.082       .  S
Cu434       N437   2.069       .  S
Cu435       N445   2.067       .  S
Cu436       N438   2.082       .  S
Cu436       N444   2.083       .  S
N437        N438   1.323       .  A
N437        C441   1.343       .  A
N438        C439   1.349       .  A
C439        C440   1.383       .  A
C439        H442   1.082       .  S
C440        C441   1.378       .  A
C440        C936   1.439       .  S
C441        H443   1.082       .  S
N444        N445   1.323       .  A
N444        C448   1.345       .  A
N445        C446   1.343       .  A
C446        C447   1.383       .  A
C446        H449   1.082       .  S
C447        C448   1.387       .  A
C447       C1069   1.479       .  S
C448        H450   1.082       .  S
N451        N452   1.322       .  A
N451        C455   1.346       .  A
N451       Cu459   2.067       .  S
N452        C453   1.344       .  A
N452       Cu458   2.070       .  S
C453        C454   1.378       .  A
C453        H456   1.082       .  S
C454        C455   1.380       .  A
C454        C915   1.435   1_545  S
C455        H457   1.082       .  S
Cu458       N461   2.070       .  S
Cu459       N469   2.067       .  S
Cu460       N462   2.083       .  S
Cu460       N468   2.083       .  S
N461        N462   1.323       .  A
N461        C465   1.343       .  A
N462        C463   1.349       .  A
C463        C464   1.383       .  A
C463        H466   1.082       .  S
C464        C465   1.378       .  A
C464        C940   1.440       .  S
C465        H467   1.082       .  S
N468        N469   1.323       .  A
N468        C472   1.345       .  A
N469        C470   1.343       .  A
C470        C471   1.383       .  A
C470        H473   1.082       .  S
C471        C472   1.387       .  A
C471       C1099   1.480       .  S
C472        H474   1.082       .  S
O475       Cu483   2.025       .  S
O475        C485   1.278       .  A
O476       Cu483   2.025       .  S
O476        C486   1.278       .  A
O477       Cu483   2.026       .  S
O477        C487   1.278       .  A
O478       Cu483   2.025       .  S
O478        C488   1.278       .  A
O479       Cu484   2.001       .  S
O479        C488   1.275       .  A
O480       Cu484   2.001       .  S
O480        C487   1.275       .  A
O481       Cu484   2.001       .  S
O481        C486   1.275       .  A
O482       Cu484   2.001       .  S
O482        C485   1.275       .  A
Cu483      Cu484   2.379       .  S
C485        C910   1.438       .  S
C486        C911   1.438       .  S
C487        C914   1.438       .  S
C488        C907   1.438       .  S
N489        N490   1.322       .  A
N489        C493   1.346       .  A
N489       Cu497   2.066       .  S
N490        C491   1.343       .  A
N490       Cu496   2.068       .  S
C491        C492   1.378       .  A
C491        H494   1.082       .  S
C492        C493   1.380       .  A
C492        C932   1.434       .  S
C493        H495   1.082       .  S
Cu496       N499   2.069       .  S
Cu497       N507   2.066       .  S
Cu498       N500   2.082       .  S
Cu498       N506   2.082       .  S
N499        N500   1.323       .  A
N499        C503   1.343       .  A
N500        C501   1.349       .  A
C501        C502   1.383       .  A
C501        H504   1.082       .  S
C502        C503   1.378       .  A
C502        C908   1.439       .  S
C503        H505   1.082       .  S
N506        N507   1.324       .  A
N506        C510   1.346       .  A
N507        C508   1.343       .  A
C508        C509   1.380       .  A
C508        H511   1.082       .  S
C509        C510   1.384       .  A
C509       C1109   1.472       .  S
C510        H512   1.082       .  S
N513        N514   1.322       .  A
N513        C517   1.346       .  A
N513       Cu521   2.068       .  S
N514        C515   1.343       .  A
N514       Cu520   2.068       .  S
C515        C516   1.378       .  A
C515        H518   1.082       .  S
C516        C517   1.380       .  A
C516        C920   1.435       .  S
C517        H519   1.082       .  S
Cu520       N523   2.068       .  S
Cu521       N531   2.069       .  S
Cu522       N524   2.083       .  S
Cu522       N530   2.083       .  S
N523        N524   1.323       .  A
N523        C527   1.343       .  A
N524        C525   1.349       .  A
C525        C526   1.383       .  A
C525        H528   1.082       .  S
C526        C527   1.378       .  A
C526        C912   1.439       .  S
C527        H529   1.082       .  S
N530        N531   1.324       .  A
N530        C534   1.346       .  A
N531        C532   1.344       .  A
C532        C533   1.381       .  A
C532        H535   1.082       .  S
C533        C534   1.385       .  A
C533        C898   1.474       .  S
C534        H536   1.082       .  S
N537        N538   1.322       .  A
N537        C541   1.346       .  A
N537       Cu545   2.065       .  S
N538        C539   1.343       .  A
N538       Cu544   2.069       .  S
C539        C540   1.378       .  A
C539        H542   1.082       .  S
C540        C541   1.379       .  A
C540        C917   1.434       .  S
C541        H543   1.082       .  S
Cu544       N547   2.070       .  S
Cu545       N555   2.066       .  S
Cu546       N548   2.082       .  S
Cu546       N554   2.083       .  S
N547        N548   1.323       .  A
N547        C551   1.343       .  A
N548        C549   1.349       .  A
C549        C550   1.383       .  A
C549        H552   1.082       .  S
C550        C551   1.378       .  A
C550        C909   1.439       .  S
C551        H553   1.082       .  S
N554        N555   1.323       .  A
N554        C558   1.346       .  A
N555        C556   1.343       .  A
C556        C557   1.382       .  A
C556        H559   1.082       .  S
C557        C558   1.386       .  A
C557       C1029   1.476       .  S
C558        H560   1.082       .  S
N561        N562   1.322       .  A
N561        C565   1.346       .  A
N561       Cu569   2.068       .  S
N562        C563   1.343       .  A
N562       Cu568   2.068       .  S
C563        C564   1.378       .  A
C563        H566   1.082       .  S
C564        C565   1.380       .  A
C564        C916   1.435       .  S
C565        H567   1.082       .  S
Cu568       N571   2.069       .  S
Cu569       N579   2.069       .  S
Cu570       N572   2.084       .  S
Cu570       N578   2.084       .  S
N571        N572   1.323       .  A
N571        C575   1.343       .  A
N572        C573   1.349       .  A
C573        C574   1.383       .  A
C573        H576   1.082       .  S
C574        C575   1.378       .  A
C574        C913   1.440       .  S
C575        H577   1.082       .  S
N578        N579   1.324       .  A
N578        C582   1.346       .  A
N579        C580   1.344       .  A
C580        C581   1.381       .  A
C580        H583   1.082       .  S
C581        C582   1.385       .  A
C581       C1149   1.475       .  S
C582        H584   1.082       .  S
N585        N586   1.322       .  A
N585        C589   1.345       .  A
N585       Cu593   2.070       .  S
N586        C587   1.344       .  A
N586       Cu592   2.068       .  S
C587        C588   1.382       .  A
C587        H590   1.082       .  S
C588        C589   1.383       .  A
C588        C953   1.472       .  S
C589        H591   1.082       .  S
Cu592       N595   2.067       .  S
Cu593       N603   2.071       .  S
Cu594       N596   2.072       .  S
Cu594       N602   2.071       .  S
N595        N596   1.322       .  A
N595        C599   1.344       .  A
N596        C597   1.345       .  A
C597        C598   1.381       .  A
C597        H600   1.082       .  S
C598        C599   1.380       .  A
C598        C888   1.465       .  S
C599        H601   1.082       .  S
N602        N603   1.322       .  A
N602        C606   1.345       .  A
N603        C604   1.344       .  A
C604        C605   1.383       .  A
C604        H607   1.082       .  S
C605        C606   1.383       .  A
C605        C901   1.472       .  S
C606        H608   1.082       .  S
O609       Cu617   2.001       .  S
O609        C619   1.275       .  A
O610       Cu617   2.000       .  S
O610        C620   1.275       .  A
O611       Cu617   2.001       .  S
O611        C621   1.275       .  A
O612       Cu617   2.001       .  S
O612        C622   1.275       .  A
O613       Cu618   2.026       .  S
O613        C622   1.278       .  A
O614       Cu618   2.026       .  S
O614        C621   1.278       .  A
O615       Cu618   2.024       .  S
O615        C620   1.278       .  A
O616       Cu618   2.024       .  S
O616        C619   1.278       .  A
Cu617      Cu618   2.379       .  S
C619        C883   1.437       .  S
C620        C881   1.437       .  S
C621        C885   1.438       .  S
C622        C879   1.438       .  S
N623        N624   1.322       .  A
N623        C627   1.346       .  A
N623       Cu631   2.067       .  S
N624        C625   1.344       .  A
N624       Cu630   2.069       .  S
C625        C626   1.378       .  A
C625        H628   1.082       .  S
C626        C627   1.380       .  A
C626        C878   1.435   1_455  S
C627        H629   1.082       .  S
Cu630       N633   2.070       .  S
Cu631       N641   2.067       .  S
Cu632       N634   2.084       .  S
Cu632       N640   2.084       .  S
N633        N634   1.323       .  A
N633        C637   1.343       .  A
N634        C635   1.349       .  A
C635        C636   1.383       .  A
C635        H638   1.082       .  S
C636        C637   1.378       .  A
C636        C880   1.440       .  S
C637        H639   1.082       .  S
N640        N641   1.323       .  A
N640        C644   1.346       .  A
N641        C642   1.343       .  A
C642        C643   1.381       .  A
C642        H645   1.082       .  S
C643        C644   1.385       .  A
C643        C868   1.475       .  S
C644        H646   1.082       .  S
N647        N648   1.322       .  A
N647        C651   1.346       .  A
N647       Cu655   2.068       .  S
N648        C649   1.343       .  A
N648       Cu654   2.068       .  S
C649        C650   1.378       .  A
C649        H652   1.082       .  S
C650        C651   1.380       .  A
C650        C865   1.435   1_455  S
C651        H653   1.082       .  S
Cu654       N657   2.069       .  S
Cu655       N665   2.069       .  S
Cu656       N658   2.082       .  S
Cu656       N664   2.083       .  S
N657        N658   1.323       .  A
N657        C661   1.343       .  A
N658        C659   1.349       .  A
C659        C660   1.383       .  A
C659        H662   1.082       .  S
C660        C661   1.378       .  A
C660        C884   1.439       .  S
C661        H663   1.082       .  S
N664        N665   1.324       .  A
N664        C668   1.346       .  A
N665        C666   1.344       .  A
C666        C667   1.380       .  A
C666        H669   1.082       .  S
C667        C668   1.383       .  A
C667       C1129   1.470       .  S
C668        H670   1.082       .  S
N671        N672   1.322       .  A
N671        C675   1.346       .  A
N671       Cu679   2.066       .  S
N672        C673   1.343       .  A
N672       Cu678   2.069       .  S
C673        C674   1.378       .  A
C673        H676   1.082       .  S
C674        C675   1.380       .  A
C674        C864   1.435   1_455  S
C675        H677   1.082       .  S
Cu678       N681   2.069       .  S
Cu679       N689   2.066       .  S
Cu680       N682   2.080       .  S
Cu680       N688   2.081       .  S
N681        N682   1.323       .  A
N681        C685   1.343       .  A
N682        C683   1.349       .  A
C683        C684   1.382       .  A
C683        H686   1.082       .  S
C684        C685   1.378       .  A
C684        C882   1.439       .  S
C685        H687   1.082       .  S
N688        N689   1.323       .  A
N688        C692   1.345       .  A
N689        C690   1.343       .  A
C690        C691   1.381       .  A
C690        H693   1.082       .  S
C691        C692   1.384       .  A
C691       C1059   1.473       .  S
C692        H694   1.082       .  S
N695        N696   1.322       .  A
N695        C699   1.346       .  A
N695       Cu703   2.064       .  S
N696        C697   1.343       .  A
N696       Cu702   2.069       .  S
C697        C698   1.378       .  A
C697        H700   1.082       .  S
C698        C699   1.379       .  A
C698        C862   1.434   1_455  S
C699        H701   1.082       .  S
Cu702       N705   2.070       .  S
Cu703       N713   2.064       .  S
Cu704       N706   2.083       .  S
Cu704       N712   2.083       .  S
N705        N706   1.323       .  A
N705        C709   1.343       .  A
N706        C707   1.349       .  A
C707        C708   1.383       .  A
C707        H710   1.082       .  S
C708        C709   1.378       .  A
C708        C886   1.440       .  S
C709        H711   1.082       .  S
N712        N713   1.324       .  A
N712        C716   1.346       .  A
N713        C714   1.343       .  A
C714        C715   1.378       .  A
C714        H717   1.082       .  S
C715        C716   1.383       .  A
C715       C1039   1.467       .  S
C716        H718   1.082       .  S
O719       Cu727   2.000       .  S
O719        C729   1.275       .  A
O720       Cu727   2.000       .  S
O720        C730   1.275       .  A
O721       Cu727   2.001       .  S
O721        C731   1.275       .  A
O722       Cu727   2.001       .  S
O722        C732   1.275       .  A
O723       Cu728   2.026       .  S
O723        C732   1.278       .  A
O724       Cu728   2.026       .  S
O724        C731   1.278       .  A
O725       Cu728   2.025       .  S
O725        C730   1.278       .  A
O726       Cu728   2.025       .  S
O726        C729   1.278       .  A
Cu727      Cu728   2.379       .  S
C729        C855   1.437       .  S
C730        C857   1.437       .  S
C731        C860   1.438       .  S
C732        C853   1.438       .  S
N733        N734   1.322       .  A
N733        C737   1.346       .  A
N733       Cu741   2.067       .  S
N734        C735   1.343       .  A
N734       Cu740   2.069       .  S
C735        C736   1.378       .  A
C735        H738   1.082       .  S
C736        C737   1.380       .  A
C736        C877   1.435       .  S
C737        H739   1.082       .  S
Cu740       N743   2.070       .  S
Cu741       N751   2.067       .  S
Cu742       N744   2.083       .  S
Cu742       N750   2.083       .  S
N743        N744   1.323       .  A
N743        C747   1.343       .  A
N744        C745   1.349       .  A
C745        C746   1.383       .  A
C745        H748   1.082       .  S
C746        C747   1.378       .  A
C746        C854   1.440       .  S
C747        H749   1.082       .  S
N750        N751   1.324       .  A
N750        C754   1.346       .  A
N751        C752   1.344       .  A
C752        C753   1.379       .  A
C752        H755   1.082       .  S
C753        C754   1.383       .  A
C753        C989   1.468       .  S
C754        H756   1.082       .  S
N757        N758   1.322       .  A
N757        C761   1.346       .  A
N757       Cu765   2.067       .  S
N758        C759   1.344       .  A
N758       Cu764   2.069       .  S
C759        C760   1.378       .  A
C759        H762   1.082       .  S
C760        C761   1.380       .  A
C760        C866   1.435       .  S
C761        H763   1.082       .  S
Cu764       N767   2.070       .  S
Cu765       N775   2.067       .  S
Cu766       N768   2.082       .  S
Cu766       N774   2.082       .  S
N767        N768   1.323       .  A
N767        C771   1.343       .  A
N768        C769   1.349       .  A
C769        C770   1.382       .  A
C769        H772   1.082       .  S
C770        C771   1.378       .  A
C770        C858   1.439       .  S
C771        H773   1.082       .  S
N774        N775   1.322       .  A
N774        C778   1.345       .  A
N775        C776   1.343       .  A
C776        C777   1.384       .  A
C776        H779   1.081       .  S
C777        C778   1.388       .  A
C777        C891   1.482       .  S
C778        H780   1.081       .  S
N781        N782   1.322       .  A
N781        C785   1.346       .  A
N781       Cu789   2.067       .  S
N782        C783   1.343       .  A
N782       Cu788   2.068       .  S
C783        C784   1.378       .  A
C783        H786   1.082       .  S
C784        C785   1.380       .  A
C784        C863   1.435       .  S
C785        H787   1.082       .  S
Cu788       N791   2.069       .  S
Cu789       N799   2.068       .  S
Cu790       N792   2.082       .  S
Cu790       N798   2.083       .  S
N791        N792   1.323       .  A
N791        C795   1.343       .  A
N792        C793   1.349       .  A
C793        C794   1.383       .  A
C793        H796   1.082       .  S
C794        C795   1.378       .  A
C794        C856   1.439       .  S
C795        H797   1.082       .  S
N798        N799   1.323       .  A
N798        C802   1.346       .  A
N799        C800   1.343       .  A
C800        C801   1.383       .  A
C800        H803   1.082       .  S
C801        C802   1.387       .  A
C801       C1089   1.480       .  S
C802        H804   1.082       .  S
N805        N806   1.322       .  A
N805        C809   1.346       .  A
N805       Cu813   2.065       .  S
N806        C807   1.343       .  A
N806       Cu812   2.068       .  S
C807        C808   1.378       .  A
C807        H810   1.082       .  S
C808        C809   1.380       .  A
C808        C861   1.434       .  S
C809        H811   1.082       .  S
Cu812       N815   2.069       .  S
Cu813       N823   2.066       .  S
Cu814       N816   2.083       .  S
Cu814       N822   2.083       .  S
N815        N816   1.323       .  A
N815        C819   1.343       .  A
N816        C817   1.349       .  A
C817        C818   1.383       .  A
C817        H820   1.082       .  S
C818        C819   1.378       .  A
C818        C859   1.440       .  S
C819        H821   1.082       .  S
N822        N823   1.324       .  A
N822        C826   1.346       .  A
N823        C824   1.343       .  A
C824        C825   1.380       .  A
C824        H827   1.082       .  S
C825        C826   1.384       .  A
C825       C1139   1.472       .  S
C826        H828   1.082       .  S
N829        N830   1.321       .  A
N829        C833   1.344       .  A
N829       Cu837   2.066       .  S
N830        C831   1.344       .  A
N830       Cu836   2.066       .  S
C831        C832   1.384       .  A
C831        H834   1.082       .  S
C832        C833   1.385       .  A
C832        C925   1.476       .  S
C833        H835   1.082       .  S
Cu836       N839   2.067       .  S
Cu837       N847   2.066       .  S
Cu838       N840   2.075       .  S
Cu838       N846   2.075       .  S
N839        N840   1.322       .  A
N839        C843   1.343       .  A
N840        C841   1.346       .  A
C841        C842   1.383       .  A
C841        H844   1.082       .  S
C842        C843   1.381       .  A
C842        C871   1.472       .  S
C843        H845   1.082       .  S
N846        N847   1.321       .  A
N846        C850   1.345       .  A
N847        C848   1.342       .  A
C848        C849   1.387       .  A
C848        H851   1.081       .  S
C849        C850   1.389       .  A
C849        C969   1.486       .  S
C850        H852   1.081       .  S
C853        C854   1.208       .  T
C855        C856   1.207       .  T
C857        C858   1.207       .  T
C859        C860   1.208       .  T
C861        C862   1.204       .  T
C863        C864   1.204       .  T
C865        C866   1.205       .  T
C867        C868   1.403       .  A
C867        C872   1.397       .  A
C867        H873   1.083       .  S
C868        C869   1.405       .  A
C869        C870   1.398       .  A
C869        H874   1.083       .  S
C870        C871   1.402       .  A
C870        H875   1.083       .  S
C871        C872   1.403       .  A
C872        H876   1.083       .  S
C877        C878   1.204       .  T
C879        C880   1.208       .  T
C881        C882   1.207       .  T
C883        C884   1.207       .  T
C885        C886   1.208       .  T
C887        C888   1.399       .  A
C887        C892   1.398       .  A
C887        H893   1.083       .  S
C888        C889   1.400       .  A
C889        C890   1.397       .  A
C889        H894   1.083       .  S
C890        C891   1.406       .  A
C890        H895   1.082       .  S
C891        C892   1.408       .  A
C892        H896   1.082       .  S
C897        C898   1.403       .  A
C897        C902   1.397       .  A
C897        H903   1.083       .  S
C898        C899   1.405       .  A
C899        C900   1.398       .  A
C899        H904   1.083       .  S
C900        C901   1.403       .  A
C900        H905   1.083       .  S
C901        C902   1.404       .  A
C902        H906   1.083       .  S
C907        C908   1.207       .  T
C909        C910   1.207       .  T
C911        C912   1.207       .  T
C913        C914   1.208       .  T
C915        C916   1.205       .  T
C917        C918   1.204       .  T
C919        C920   1.204       .  T
C921        C922   1.402       .  A
C921        C926   1.397       .  A
C921        H927   1.083       .  S
C922        C923   1.401       .  A
C923        C924   1.397       .  A
C923        H928   1.083       .  S
C924        C925   1.406       .  A
C924        H929   1.082       .  S
C925        C926   1.405       .  A
C926        H930   1.083       .  S
C931        C932   1.204       .  T
C933        C934   1.207       .  T
C935        C936   1.207       .  T
C937        C938   1.207       .  T
C939        C940   1.208       .  T
C941        C942   1.207       .  T
C943        C944   1.207       .  T
C945        C946   1.208       .  T
C947        C948   1.207       .  T
C949        C950   1.403       .  A
C949        C954   1.397       .  A
C949        H955   1.083       .  S
C950        C951   1.404       .  A
C951        C952   1.398       .  A
C951        H956   1.083       .  S
C952        C953   1.403       .  A
C952        H957   1.083       .  S
C953        C954   1.404       .  A
C954        H958   1.083       .  S
C959        C960   1.204       .  T
C961        C962   1.204       .  T
C963        C964   1.204       .  T
C965        C966   1.398       .  A
C965        C970   1.397       .  A
C965        H971   1.083       .  S
C966        C967   1.399       .  A
C967        C968   1.398       .  A
C967        H972   1.083       .  S
C968        C969   1.408       .  A
C968        H973   1.081       .  S
C969        C970   1.409       .  A
C970        H974   1.081       .  S
C975        C976   1.205       .  T
C977        C978   1.207       .  T
C979        C980   1.207       .  T
C981        C982   1.207       .  T
C983        C984   1.207       .  T
C985        C986   1.406       .  A
C985        C990   1.397       .  A
C985        H991   1.082       .  S
C986        C987   1.405       .  A
C987        C988   1.398       .  A
C987        H992   1.083       .  S
C988        C989   1.402       .  A
C988        H993   1.083       .  S
C989        C990   1.401       .  A
C990        H994   1.083       .  S
C995        C996   1.403       .  A
C995       C1000   1.396       .  A
C995       H1001   1.083       .  S
C996        C997   1.402       .  A
C997        C998   1.398       .  A
C997       H1002   1.083       .  S
C998        C999   1.405       .  A
C998       H1003   1.083       .  S
C999       C1000   1.403       .  A
C1000      H1004   1.083       .  S
C1005      C1006   1.400       .  A
C1005      C1010   1.397       .  A
C1005      H1011   1.083       .  S
C1006      C1007   1.398       .  A
C1007      C1008   1.397       .  A
C1007      H1012   1.083       .  S
C1008      C1009   1.409       .  A
C1008      H1013   1.081       .  S
C1009      C1010   1.407       .  A
C1010      H1014   1.081       .  S
C1015      C1016   1.400       .  A
C1015      C1020   1.399       .  A
C1015      H1021   1.083       .  S
C1016      C1017   1.401       .  A
C1017      C1018   1.397       .  A
C1017      H1022   1.083       .  S
C1018      C1019   1.406       .  A
C1018      H1023   1.082       .  S
C1019      C1020   1.408       .  A
C1020      H1024   1.082       .  S
C1025      C1026   1.403       .  A
C1025      C1030   1.396       .  A
C1025      H1031   1.083       .  S
C1026      C1027   1.401       .  A
C1027      C1028   1.398       .  A
C1027      H1032   1.083       .  S
C1028      C1029   1.406       .  A
C1028      H1033   1.083       .  S
C1029      C1030   1.403       .  A
C1030      H1034   1.083       .  S
C1035      C1036   1.406       .  A
C1035      C1040   1.396       .  A
C1035      H1041   1.082       .  S
C1036      C1037   1.405       .  A
C1037      C1038   1.398       .  A
C1037      H1042   1.083       .  S
C1038      C1039   1.402       .  A
C1038      H1043   1.083       .  S
C1039      C1040   1.400       .  A
C1040      H1044   1.083       .  S
C1045      C1046   1.406       .  A
C1045      C1050   1.398       .  A
C1045      H1051   1.083       .  S
C1046      C1047   1.405       .  A
C1047      C1048   1.398       .  A
C1047      H1052   1.083       .  S
C1048      C1049   1.403       .  A
C1048      H1053   1.083       .  S
C1049      C1050   1.401       .  A
C1050      H1054   1.083       .  S
C1055      C1056   1.402       .  A
C1055      C1060   1.398       .  A
C1055      H1061   1.083       .  S
C1056      C1057   1.404       .  A
C1057      C1058   1.396       .  A
C1057      H1062   1.083       .  S
C1058      C1059   1.402       .  A
C1058      H1063   1.083       .  S
C1059      C1060   1.405       .  A
C1060      H1064   1.083       .  S
C1065      C1066   1.400       .  A
C1065      C1070   1.399       .  A
C1065      H1071   1.083       .  S
C1066      C1067   1.402       .  A
C1067      C1068   1.396       .  A
C1067      H1072   1.083       .  S
C1068      C1069   1.404       .  A
C1068      H1073   1.082       .  S
C1069      C1070   1.407       .  A
C1070      H1074   1.082       .  S
C1075      C1076   1.402       .  A
C1075      C1080   1.398       .  A
C1075      H1081   1.083       .  S
C1076      C1077   1.404       .  A
C1077      C1078   1.396       .  A
C1077      H1082   1.083       .  S
C1078      C1079   1.402       .  A
C1078      H1083   1.083       .  S
C1079      C1080   1.405       .  A
C1080      H1084   1.083       .  S
C1085      C1086   1.400       .  A
C1085      C1090   1.398       .  A
C1085      H1091   1.083       .  S
C1086      C1087   1.402       .  A
C1087      C1088   1.397       .  A
C1087      H1092   1.083       .  S
C1088      C1089   1.405       .  A
C1088      H1093   1.082       .  S
C1089      C1090   1.407       .  A
C1090      H1094   1.082       .  S
C1095      C1096   1.400       .  A
C1095      C1100   1.399       .  A
C1095      H1101   1.083       .  S
C1096      C1097   1.402       .  A
C1097      C1098   1.396       .  A
C1097      H1102   1.083       .  S
C1098      C1099   1.405       .  A
C1098      H1103   1.082       .  S
C1099      C1100   1.407       .  A
C1100      H1104   1.082       .  S
C1105      C1106   1.403       .  A
C1105      C1110   1.398       .  A
C1105      H1111   1.083       .  S
C1106      C1107   1.404       .  A
C1107      C1108   1.396       .  A
C1107      H1112   1.083       .  S
C1108      C1109   1.402       .  A
C1108      H1113   1.083       .  S
C1109      C1110   1.404       .  A
C1110      H1114   1.083       .  S
C1115      C1116   1.401       .  A
C1115      C1120   1.396       .  A
C1115      H1121   1.083       .  S
C1116      C1117   1.400       .  A
C1117      C1118   1.398       .  A
C1117      H1122   1.083       .  S
C1118      C1119   1.408       .  A
C1118      H1123   1.082       .  S
C1119      C1120   1.405       .  A
C1120      H1124   1.082       .  S
C1125      C1126   1.405       .  A
C1125      C1130   1.398       .  A
C1125      H1131   1.083       .  S
C1126      C1127   1.406       .  A
C1127      C1128   1.398       .  A
C1127      H1132   1.082       .  S
C1128      C1129   1.401       .  A
C1128      H1133   1.083       .  S
C1129      C1130   1.402       .  A
C1130      H1134   1.083       .  S
C1135      C1136   1.404       .  A
C1135      C1140   1.396       .  A
C1135      H1141   1.083       .  S
C1136      C1137   1.403       .  A
C1137      C1138   1.398       .  A
C1137      H1142   1.083       .  S
C1138      C1139   1.404       .  A
C1138      H1143   1.083       .  S
C1139      C1140   1.402       .  A
C1140      H1144   1.083       .  S
C1145      C1146   1.403       .  A
C1145      C1150   1.398       .  A
C1145      H1151   1.083       .  S
C1146      C1147   1.404       .  A
C1147      C1148   1.397       .  A
C1147      H1152   1.083       .  S
C1148      C1149   1.403       .  A
C1148      H1153   1.083       .  S
C1149      C1150   1.405       .  A
C1150      H1154   1.083       .  S
C1155      C1156   1.400       .  A
C1155      C1160   1.398       .  A
C1155      H1161   1.083       .  S
C1156      C1157   1.402       .  A
C1157      C1158   1.396       .  A
C1157      H1162   1.083       .  S
C1158      C1159   1.405       .  A
C1158      H1163   1.082       .  S
C1159      C1160   1.407       .  A
C1160      H1164   1.082       .  S
