geometry optimzed in LAMMPS
_audit_creation_date              2020-11-30 
_audit_creation_method            'lammps2cif' 
_symmetry_space_group_name_H-M    'P1' 
_symmetry_Int_Tables_number       1 
_symmetry_cell_setting            triclinic 
loop_ 
_symmetry_equiv_pos_as_xyz 
  x,y,z 
_cell_length_a                    44.243256130832876 
_cell_length_b                    42.39967946046317 
_cell_length_c                    33.83922565221348 
_cell_angle_alpha                 89.74934552012874 
_cell_angle_beta                  90.22198689213634 
_cell_angle_gamma                 120.80428073459798 
loop_ 
_atom_site_label 
_atom_site_type_symbol 
_atom_site_fract_x 
_atom_site_fract_y 
_atom_site_fract_z 
_atom_site_charge 
O1          O  0.07396013  0.07324977  0.47879915    -0.81120
O2          O  0.43854397  0.49843725  0.57683752    -0.65810
O3          O  0.00969156  0.51347596  0.50172698    -1.12410
C4          C  0.44590219  0.05285278  0.42299968     1.05770
O5          O  0.40033361  0.46566785  0.53068584    -0.79020
O6          O  0.41711075  0.46037469  0.45627138    -0.66600
Ni7        Ni  0.05769271  0.03378218  0.51621858     1.34870
C8          C  0.44221769  0.46394569  0.43508210     0.84500
O9          O  0.99254016  0.48293843  0.57908280    -0.79560
O10         O  0.04456141  0.49495135  0.55390030    -0.89830
C11         C  0.40672779  0.47984496  0.56467512     0.84080
O12         O  0.06067654  0.06698225  0.55606770    -0.68030
O13         O  0.41941617  0.02579814  0.43936115    -0.87320
C14         C  0.03899493  0.07501192  0.57026599     0.84910
C15         C  0.01890883  0.47802867  0.57778936     1.06480
H16         H  0.46237657  0.04924370  0.51168407     0.38280
O17         O  0.45972447  0.02657088  0.50192079    -1.09980
O18         O  0.47200548  0.49345170  0.43362104    -0.66630
Ni19       Ni  0.99582912  0.03830107  0.46426750     1.26350
O20         O  0.00562171  0.05493797  0.56516731    -0.66860
O21         O  0.47805008  0.06178686  0.42936771    -0.79150
C22         C  0.06717351  0.06829312  0.44220451     0.84290
O23         O  0.03546693  0.05189408  0.42975696    -0.66330
Ni24       Ni  0.41182190  0.49603678  0.48513204     1.27450
Ni25       Ni  0.47604741  0.50609699  0.54142168     1.26060
H26         H  0.00255879  0.48944173  0.49140153     0.38830
O27         O  0.11374613  0.15816971  0.84747708    -0.81120
O28         O  0.10605823  0.18463278  0.65881833    -0.65810
O29         O  0.09358013  0.15603523  0.76788903    -1.12410
C30         C  0.12762466  0.07499975  0.73812887     1.05770
O31         O  0.13179483  0.15650015  0.63688554    -0.79020
O32         O  0.07772068  0.09541325  0.67612025    -0.66600
Ni33       Ni  0.10780559  0.18991397  0.80982014     1.34870
C34         C  0.06052709  0.08220780  0.70816401     0.84500
O35         O  0.07793601  0.19924660  0.72016430    -0.79560
O36         O  0.10122415  0.22420464  0.77869026    -0.89830
C37         C  0.10678151  0.16244137  0.63422151     0.84080
O38         O  0.15521361  0.21265195  0.79143634    -0.68030
O39         O  0.12414234  0.07899502  0.70161425    -0.87320
C40         C  0.16547482  0.23056997  0.75894757     0.84910
C41         C  0.08856789  0.22532333  0.74506176     1.06720
H42         H  0.15687523  0.16938163  0.71611046     0.38280
O43         O  0.13221305  0.15092285  0.71417001    -1.09980
O44         O  0.07445520  0.09019032  0.74254718    -0.66630
Ni45       Ni  0.11714828  0.12920836  0.76462348     1.26350
O46         O  0.14669259  0.21992508  0.72728214    -0.66860
O47         O  0.14056932  0.10223235  0.76096497    -0.79150
C48         C  0.10463191  0.12427335  0.84654797     0.84290
O49         O  0.10047785  0.10725306  0.81460895    -0.66330
Ni50       Ni  0.12784226  0.11906438  0.67120361     1.27450
Ni51       Ni  0.10330549  0.17388847  0.71500411     1.26060
H52         H  0.06849364  0.13953103  0.77048321     0.38830
O53         O  0.06742331  0.36640102  0.84730336    -0.81120
O54         O  0.02385041  0.39964113  0.68183581    -0.65810
O55         O  0.05588507  0.37009870  0.77117788    -1.12410
C56         C  0.16746668  0.46162248  0.73802236     1.05770
O57         O  0.07098192  0.41869379  0.64327731    -0.79020
O58         O  0.09783998  0.37889224  0.68424828    -0.66600
Ni59       Ni  0.02778641  0.35936283  0.81796977     1.34870
C60         C  0.10738655  0.36793185  0.71459801     0.84500
O61         O  0.99452948  0.33914943  0.72857357    -0.79560
O62         O  0.98459992  0.34628715  0.79130278    -0.89830
C63         C  0.04114440  0.41534301  0.65080458     0.84080
O64         O  0.04293167  0.41114636  0.81821272    -0.68030
O65         O  0.15546520  0.44641887  0.70449009    -0.87320
C66         C  0.03926835  0.92697988  0.78811127     0.84910
C67         C  0.97365006  0.33202340  0.75732057     1.06480
H68         H  0.08479551  0.44828746  0.72542866     0.38280
O69         O  0.08537085  0.42596271  0.72320100    -1.09980
O70         O  0.11875298  0.38717872  0.74613018    -0.66630
Ni71       Ni  0.10162743  0.41608313  0.77070979     1.26350
O72         O  0.02295708  0.40833968  0.75788865    -0.66860
O73         O  0.14696622  0.45946900  0.76560033    -0.79150
C74         C  0.09406580  0.39785388  0.85020911     0.84290
O75         O  0.11626638  0.40934337  0.82225323    -0.66330
Ni76       Ni  0.11113261  0.42969081  0.67692688     1.27450
Ni77       Ni  0.03932316  0.38302381  0.72564901     1.26060
H78         H  0.05757530  0.34874809  0.76564524     0.38830
O79         O  0.37589308  0.44941450  0.66822564    -0.81120
O80         O  0.38945604  0.41827367  0.82409843    -0.65810
O81         O  0.34453674  0.40430402  0.72687528    -1.12410
C82         C  0.29801217  0.47202226  0.76917306     1.05770
O83         O  0.35347797  0.42735287  0.86238037    -0.79020
O84         O  0.29544851  0.38943364  0.80938382    -0.66600
Ni85       Ni  0.36834917  0.40306974  0.68220482     1.34870
C86         C  0.27939803  0.38004333  0.77600477     0.84500
O87         O  0.37746761  0.37298708  0.76331883    -0.79560
O88         O  0.36202781  0.35746827  0.69942966    -0.89830
C89         C  0.38060347  0.42434138  0.85728087     0.84080
O90         O  0.41576723  0.42750142  0.70005580    -0.68030
O91         O  0.29491927  0.45336654  0.80030687    -0.87320
C92         C  0.42749969  0.45243862  0.72573677     0.84910
C93         C  0.37108292  0.35182201  0.73338151     1.06480
H94         H  0.37452178  0.47141848  0.78699477     0.38280
O95         O  0.35388887  0.44724373  0.78429143    -1.09980
O96         O  0.28734236  0.40280406  0.74711700    -0.66630
Ni97       Ni  0.33434131  0.44257116  0.73281794     1.26350
O98         O  0.40991351  0.44972053  0.75613898    -0.66860
O99         O  0.32068816  0.47795917  0.74255769    -0.79150
C100        C  0.35051092  0.45168404  0.65515510     0.84290
O101        O  0.32341231  0.44210985  0.67691684    -0.66330
Ni102      Ni  0.32439198  0.43875509  0.82798261     1.27450
Ni103      Ni  0.36639095  0.41044235  0.77521026     1.26060
H104        H  0.32329172  0.38052203  0.72701053     0.38830
O105        O  0.14842586  0.07298943  0.16796433    -0.81120
O106        O  0.13490003  0.10095845  0.32700867    -0.65810
O107        O  0.17946589  0.11573561  0.22960293    -1.12410
C108        C  0.22434557  0.04574241  0.27143618     1.05770
O109        O  0.17091689  0.09145944  0.36517389    -0.79020
O110        O  0.22899534  0.12881541  0.31229197    -0.66600
Ni111      Ni  0.15594404  0.11850793  0.18487156     1.34870
C112        C  0.24492899  0.13824567  0.27891068     0.84500
O113        O  0.14649938  0.14671952  0.26705637    -0.79560
O114        O  0.16198262  0.16348907  0.20358317    -0.89830
C115        C  0.14386736  0.09467951  0.36013447     0.84080
O116        O  0.10835858  0.09246691  0.20256042    -0.68030
O117        O  0.22790954  0.06418093  0.30273019    -0.87320
C118        C  0.09731773  0.06701863  0.22786641     0.84910
C119        C  0.15249011  0.16822834  0.23747506     1.06480
H120        H  0.14914680  0.04800195  0.28951768     0.38280
O121        O  0.16989944  0.07210559  0.28688521    -1.09980
O122        O  0.23626571  0.11583626  0.24972573    -0.66630
Ni123      Ni  0.18896627  0.07686006  0.23533543     1.26350
O124        O  0.11448847  0.07034384  0.25892010    -0.66860
O125        O  0.20184252  0.04072042  0.24478053    -0.79150
C126        C  0.17305351  0.06847060  0.15707567     0.84290
O127        O  0.19972060  0.07750907  0.17955385    -0.66330
Ni128      Ni  0.19925830  0.07947964  0.33059202     1.27450
Ni129      Ni  0.15780404  0.10929317  0.27820301     1.26060
H130        H  0.20095690  0.13930370  0.23007450     0.38830
O131        O  0.41803759  0.35647633  0.35034694    -0.81120
O132        O  0.41817255  0.33143312  0.16047016    -0.65810
O133        O  0.43629765  0.35880635  0.26972657    -1.12410
C134        C  0.40446891  0.44286779  0.24652783     1.05770
O135        O  0.39284868  0.36147696  0.14223064    -0.79020
O136        O  0.45086536  0.41994331  0.17910706    -0.66600
Ni137      Ni  0.42230869  0.32451091  0.31149105     1.34870
C138        C  0.46948389  0.43288177  0.21022566     0.84500
O139        O  0.44793071  0.31472504  0.21940449    -0.79560
O140        O  0.42683657  0.28980235  0.27879538    -0.89830
C141        C  0.41657013  0.35392649  0.13674848     0.84080
O142        O  0.37443756  0.30307774  0.29506244    -0.68030
O143        O  0.40940909  0.44067965  0.21003362    -0.87320
C144        C  0.36257631  0.28579187  0.26253766     0.84910
C145        C  0.43777465  0.28849735  0.24422779     1.06480
H146        H  0.37180296  0.34848446  0.22172233     0.38280
O147        O  0.39660057  0.36620610  0.21896809    -1.09980
O148        O  0.45680282  0.42535262  0.24525350    -0.66630
Ni149      Ni  0.41416970  0.38700805  0.26888225     1.26350
O150        O  0.38023811  0.29633983  0.23019348    -0.66860
O151        O  0.39139451  0.41474429  0.26807978    -0.79150
C152        C  0.42779392  0.39059778  0.34987190     0.84290
O153        O  0.43324439  0.40834959  0.31817968    -0.66330
Ni154      Ni  0.40114192  0.39971953  0.17763557     1.27450
Ni155      Ni  0.42388950  0.34162610  0.21686972     1.26060
H156        H  0.46157286  0.37452073  0.27133283     0.38830
O157        O  0.45197239  0.14991807  0.34922700    -0.81120
O158        O  0.49705756  0.11248379  0.18663547    -0.65810
O159        O  0.46421065  0.14428972  0.27313841    -1.12410
C160        C  0.35296826  0.05165266  0.24119753     1.05770
O161        O  0.44962713  0.09104286  0.14774265    -0.79020
O162        O  0.42303278  0.13233269  0.18490587    -0.66600
Ni163      Ni  0.49223458  0.15783644  0.32051649     1.34870
C164        C  0.41340684  0.14433126  0.21403891     0.84500
O165        O  0.52578865  0.17432444  0.23094936    -0.79560
O166        O  0.53567313  0.17100994  0.29486202    -0.89830
C167        C  0.48009321  0.09608513  0.15559645     0.84080
O168        O  0.47912342  0.10709536  0.32389629    -0.68030
O169        O  0.36513834  0.06560799  0.20720705    -0.87320
C170        C  0.48271198  0.08980428  0.29554333     0.84910
C171        C  0.54658278  0.18336819  0.26023518     1.06480
H172        H  0.43644625  0.06472496  0.23175188     0.38280
O173        O  0.43535618  0.08667165  0.22770658    -1.09980
O174        O  0.40148873  0.12593492  0.24609614    -0.66630
Ni175      Ni  0.41863271  0.09811328  0.27363324     1.26350
O176        O  0.49773123  0.10606928  0.26362418    -0.66860
O177        O  0.37337647  0.05444297  0.26936671    -0.79150
C178        C  0.42561870  0.11814257  0.35194907     0.84290
O179        O  0.40367118  0.10683190  0.32366380    -0.66330
Ni180      Ni  0.40956204  0.08125563  0.18054303     1.27450
Ni181      Ni  0.48118370  0.13007112  0.22915238     1.26060
H182        H  0.46230903  0.16524154  0.26592142     0.38830
O183        O  0.44875878  0.44521225  0.97755597    -0.81120
O184        O  0.08383455  0.01560248  0.07882214    -0.65810
O185        O  0.51374497  0.00320880  0.00277137    -1.12410
C186        C  0.07578034  0.46151850  0.92477975     1.05770
O187        O  0.12271139  0.04765097  0.03293944    -0.79020
O188        O  0.10854040  0.05301279  0.95681844    -0.66600
Ni189      Ni  0.46562351  0.48333865  0.01659124     1.34870
C190        C  0.08410329  0.05124587  0.93552283     0.84500
O191        O  0.03099135  0.03252624  0.08066859    -0.79560
O192        O  0.47877758  0.02069415  0.05600761    -0.89830
C193        C  0.11579800  0.03388183  0.06723314     0.84080
O194        O  0.46158773  0.44822867  0.05490880    -0.68030
O195        O  0.10252987  0.98603218  0.94334195    -0.87320
C196        C  0.48298442  0.44013135  0.07012979     0.84910
C197        C  0.50439772  0.03706747  0.08013066     1.06480
H198        H  0.05844275  0.46477157  0.01323507     0.38280
O199        O  0.06238249  0.98807174  0.00359925    -1.09980
O200        O  0.05294043  0.02368237  0.93542599    -0.66630
Ni201      Ni  0.02715787  0.47837357  0.96517802     1.26350
O202        O  0.01645268  0.46037527  0.06641210    -0.66860
O203        O  0.04414340  0.45464889  0.92994704    -0.79150
C204        C  0.45648048  0.45064371  0.94118661     0.84290
O205        O  0.48843817  0.46692138  0.92978492    -0.66330
Ni206      Ni  0.11078025  0.01653716  0.98816787     1.27450
Ni207      Ni  0.04685877  0.00915901  0.04292748     1.26060
H208        H  0.02139802  0.02750472  0.99267046     0.38830
C209        C  0.50217143  0.06201392  0.10790464    -0.13500
C210        C  0.49475965  0.08030007  0.12908529    -0.15060
C211        C  0.46701174  0.40604497  0.09290123    -0.13500
C212        C  0.44624906  0.37892575  0.11181584    -0.15060
C213        C  0.48088227  0.03509796  0.27130668    -0.13580
C214        C  0.46616096  0.04980665  0.29611978     0.08570
C215        C  0.43096739  0.52739739  0.30861449    -0.13580
C216        C  0.41028536  0.49156754  0.29389472    -0.13580
C217        C  0.42427919  0.47913131  0.26500351     0.08570
C218        C  0.45974104  0.50105293  0.25458469    -0.13580
H219        H  0.50771846  0.05177911  0.26084542     0.12560
H220        H  0.41843015  0.53848135  0.32641289     0.12560
H221        H  0.38303188  0.47481037  0.30277924     0.12560
H222        H  0.47106496  0.49258915  0.23215826     0.12560
C223        C  0.44601158  0.21178701  0.19607708    -0.13580
C224        C  0.41691766  0.18089537  0.21335557     0.08570
C225        C  0.39410558  0.18607327  0.23735370    -0.13580
C226        C  0.40146717  0.22111015  0.24659946    -0.13580
C227        C  0.43157184  0.25227206  0.23164184     0.08570
C228        C  0.45311704  0.24746234  0.20487086    -0.13580
H229        H  0.46421426  0.20846628  0.17778128     0.12560
H230        H  0.37130573  0.16286072  0.25076971     0.12560
H231        H  0.38357605  0.22376133  0.26617309     0.12560
H232        H  0.47606213  0.27106973  0.19230821     0.12560
C233        C  0.16641236  0.05147594  0.11925926    -0.13500
C234        C  0.14476947  0.04086935  0.09296615    -0.15060
C235        C  0.10715510  0.20837898  0.28506718    -0.13580
C236        C  0.08464533  0.20304587  0.25313002     0.08570
C237        C  0.09693735  0.20510866  0.21449375    -0.13580
C238        C  0.12637318  0.20194979  0.20848779    -0.13580
C239        C  0.14254610  0.19610065  0.24120353     0.08570
C240        C  0.13625280  0.20469792  0.27906928    -0.13580
H241        H  0.09916316  0.20888812  0.31516540     0.12560
H242        H  0.08085957  0.20279671  0.18918786     0.12560
H243        H  0.13185134  0.19700620  0.17871154     0.12560
H244        H  0.14964262  0.20203004  0.30460500     0.12560
C245        C  0.27186138  0.03490783  0.29558243    -0.13580
C246        C  0.25088759  0.03490706  0.26418089     0.08570
C247        C  0.26038221  0.03205653  0.22538001    -0.13580
C248        C  0.29229673  0.03369477  0.21798207    -0.13580
C249        C  0.31519213  0.03789558  0.24924454     0.08570
C250        C  0.30359304  0.03620104  0.28821213    -0.13580
H251        H  0.26510415  0.03677827  0.32586584     0.12560
H252        H  0.24486125  0.03202622  0.20053323     0.12560
H253        H  0.30028667  0.03459902  0.18758750     0.12560
H254        H  0.32043593  0.03924837  0.31299806     0.12560
C255        C  0.29269467  0.18826832  0.23779531    -0.13580
C256        C  0.27370028  0.17672980  0.27339443     0.08570
C257        C  0.28173714  0.20264550  0.30341342    -0.13580
C258        C  0.30911710  0.23884757  0.29869184    -0.13580
C259        C  0.32918024  0.25005761  0.26384169     0.08570
C260        C  0.32014478  0.22458569  0.23305120    -0.13580
H261        H  0.28687005  0.16907813  0.21388159     0.12560
H262        H  0.26724244  0.19487146  0.33093537     0.12560
H263        H  0.31537884  0.25773724  0.32302372     0.12560
H264        H  0.33533907  0.23220731  0.20601791     0.12560
C265        C  0.05762776  0.00188856  0.24581723    -0.13580
C266        C  0.06569281  0.03126934  0.22010852     0.08570
C267        C  0.04548698  0.52485339  0.18571265    -0.13580
C268        C  0.01589694  0.49022874  0.17902732    -0.13580
C269        C  0.00624619  0.46207041  0.20696971     0.08570
C270        C  0.02837710  0.46758934  0.23912009    -0.13580
H271        H  0.07343638  0.00549116  0.27181065     0.12560
H272        H  0.05186572  0.54677534  0.16478377     0.12560
H273        H  0.99882518  0.48656746  0.15425551     0.12560
H274        H  0.52140951  0.44613422  0.26091267     0.12560
C275        C  0.40411680  0.42992454  0.88977231    -0.13500
C276        C  0.42796834  0.43809662  0.91297289    -0.15060
C277        C  0.08301916  0.44018770  0.89759832    -0.13500
C278        C  0.09147256  0.42289946  0.87668067    -0.15060
C279        C  0.24908997  0.48035742  0.79317183    -0.13580
C280        C  0.27069535  0.48182166  0.76191484     0.08570
C281        C  0.26118935  0.48496796  0.72308529    -0.13580
C282        C  0.22874674  0.48212837  0.71543546    -0.13580
C283        C  0.20536955  0.47649113  0.74647847     0.08570
C284        C  0.21683981  0.47791945  0.78555171    -0.13580
H285        H  0.25581504  0.47819295  0.82347462     0.12560
H286        H  0.27719014  0.48611886  0.69834940     0.12560
H287        H  0.22081386  0.48146851  0.68498720     0.12560
H288        H  0.19957298  0.47372672  0.81015859     0.12560
C289        C  0.92402732  0.31183750  0.71080693    -0.13580
C290        C  0.93569491  0.31277302  0.74964308     0.08570
C291        C  0.41311266  0.30773441  0.78119602    -0.13580
C292        C  0.38502760  0.31311233  0.77482160    -0.13580
C293        C  0.37980447  0.32300558  0.73695665     0.08570
C294        C  0.39567362  0.31684071  0.70440376    -0.13580
H295        H  0.94015438  0.31396915  0.68575966     0.12560
H296        H  0.42062483  0.30638135  0.81138554     0.12560
H297        H  0.37177370  0.31600830  0.80018618     0.12560
H298        H  0.39097475  0.32282165  0.67461503     0.12560
C299        C  0.09895211  0.10365720  0.88269123    -0.13500
C300        C  0.09243664  0.08133052  0.90873952    -0.15060
C301        C  0.12091872  0.29274336  0.75093911    -0.13580
C302        C  0.09287397  0.26116565  0.73360257     0.08570
C303        C  0.07200372  0.26539197  0.70503882    -0.13580
C304        C  0.07775583  0.30063854  0.69635815    -0.13580
C305        C  0.10481405  0.33178752  0.71566138     0.08570
C306        C  0.12689468  0.32736901  0.74196375    -0.13580
H307        H  0.13852159  0.29081734  0.77184667     0.12560
H308        H  0.05074674  0.24157774  0.69056556     0.12560
H309        H  0.06018997  0.30335180  0.67613372     0.12560
H310        H  0.14826290  0.35079830  0.75690172     0.12560
C311        C  0.08892859  0.99068259  0.80490238    -0.13580
C312        C  0.05763730  0.96729715  0.78408259     0.08570
C313        C  0.04948729  0.98090577  0.75046451    -0.13580
C314        C  0.07403643  0.01440353  0.73464027    -0.13580
C315        C  0.10576328  0.03765425  0.75431500     0.08570
C316        C  0.11242314  0.02629232  0.79069599    -0.13580
H317        H  0.09626911  0.48091310  0.83054420     0.12560
H318        H  0.02563224  0.96394815  0.73367893     0.12560
H319        H  0.06785460  0.02208869  0.70663518     0.12560
H320        H  0.13626853  0.04415417  0.80701593     0.12560
C321        C  0.20450488  0.29331008  0.73037560    -0.13580
C322        C  0.19804929  0.26708784  0.75981609     0.08570
C323        C  0.21975321  0.27804346  0.79348387    -0.13580
C324        C  0.24615010  0.31462950  0.79855168    -0.13580
C325        C  0.25158276  0.34120568  0.77004545     0.08570
C326        C  0.23103135  0.33001111  0.73543178    -0.13580
H327        H  0.18797088  0.28588286  0.70432436     0.12560
H328        H  0.21550274  0.25856938  0.81674101     0.12560
H329        H  0.26197969  0.32214375  0.82517493     0.12560
H330        H  0.23485384  0.34974349  0.71266177     0.12560
C331        C  0.48002872  0.99275210  0.68392520    -0.13580
C332        C  0.46088968  0.98670734  0.71905231     0.08570
C333        C  0.47212934  0.01519251  0.74658921    -0.13580
C334        C  0.00303024  0.04822341  0.74046086    -0.13580
C335        C  0.02356694  0.05331615  0.70695028     0.08570
C336        C  0.51123600  0.02609379  0.67778265    -0.13580
H337        H  0.47131583  0.97152042  0.66171135     0.12560
H338        H  0.45739992  0.51182942  0.77335055     0.12560
H339        H  0.01201047  0.06906720  0.76319867     0.12560
H340        H  0.52695997  0.02946407  0.65189943     0.12560
C341        C  0.43191381  0.41069868  0.38585095    -0.13500
C342        C  0.43639444  0.43349818  0.41038377    -0.15060
C343        C  0.43768543  0.07479665  0.39740827    -0.13500
C344        C  0.42880079  0.09270272  0.37775248    -0.15060
C345        C  0.09633167  0.08102324  0.41506714    -0.13500
C346        C  0.12049495  0.08913623  0.39253443    -0.15060
C347        C  0.35599968  0.46479209  0.61546552    -0.13500
C348        C  0.37741638  0.47348681  0.58924805    -0.15060
C349        C  0.05465396  0.10897232  0.59315261    -0.13500
C350        C  0.07581097  0.13639099  0.61139182    -0.15060
C351        C  0.02074523  0.45187273  0.60422320    -0.13500
C352        C  0.02763258  0.43243411  0.62432436    -0.15060
O353        O  0.07396019  0.57325009  0.47879911    -0.81120
O354        O  0.43854401  0.99843721  0.57683744    -0.65810
O355        O  0.00969157  0.01347555  0.50172689    -1.12410
C356        C  0.44590220  0.55285296  0.42299982     1.05770
O357        O  0.40033364  0.96566775  0.53068579    -0.79020
O358        O  0.41711086  0.96037450  0.45627138    -0.66600
Ni359      Ni  0.05769273  0.53378251  0.51621858     1.34870
C360        C  0.44221780  0.96394553  0.43508209     0.84500
O361        O  0.99254019  0.98293819  0.57908279    -0.79560
O362        O  0.04456141  0.99495101  0.55390028    -0.89830
C363        C  0.40672783  0.97984490  0.56467505     0.84080
O364        O  0.06067665  0.56698264  0.55606767    -0.68030
O365        O  0.41941616  0.52579838  0.43936134    -0.87320
C366        C  0.03899505  0.57501226  0.57026614     0.84910
C367        C  0.01890884  0.97802839  0.57778937     1.06480
H368        H  0.46237659  0.54924381  0.51168419     0.38280
O369        O  0.45972446  0.52657099  0.50192089    -1.09980
O370        O  0.47200555  0.99345159  0.43362097    -0.66630
Ni371      Ni  0.99582915  0.53830158  0.46426769     1.26350
O372        O  0.00562182  0.55493829  0.56516760    -0.66860
O373        O  0.47805008  0.56178698  0.42936781    -0.79150
C374        C  0.06717348  0.56829344  0.44220448     0.84290
O375        O  0.03546687  0.55189447  0.42975703    -0.66330
Ni376      Ni  0.41182193  0.99603660  0.48513192     1.27450
Ni377      Ni  0.47604745  0.00609694  0.54142161     1.26060
H378        H  0.00255884  0.98944131  0.49140150     0.38830
O379        O  0.11374628  0.65816969  0.84747731    -0.81120
O380        O  0.10605833  0.68463294  0.65881865    -0.65810
O381        O  0.09358022  0.65603525  0.76788929    -1.12410
C382        C  0.12762471  0.57499978  0.73812895     1.05770
O383        O  0.13179495  0.65650035  0.63688579    -0.79020
O384        O  0.07772076  0.59541339  0.67612041    -0.66600
Ni385      Ni  0.10780569  0.68991396  0.80982043     1.34870
C386        C  0.06052716  0.58220790  0.70816416     0.84500
O387        O  0.07793607  0.69924664  0.72016465    -0.79560
O388        O  0.10122421  0.72420464  0.77869062    -0.89830
C389        C  0.10678164  0.66244159  0.63422177     0.84080
O390        O  0.15521371  0.71265201  0.79143662    -0.68030
O391        O  0.12414240  0.57899511  0.70161433    -0.87320
C392        C  0.16547490  0.73057003  0.75894785     0.84910
C393        C  0.08856794  0.72532335  0.74506213     1.06720
H394        H  0.15687532  0.66938171  0.71611070     0.38280
O395        O  0.13221313  0.65092293  0.71417023    -1.09980
O396        O  0.07445527  0.59019037  0.74254734    -0.66630
Ni397      Ni  0.11714836  0.62920839  0.76462367     1.26350
O398        O  0.14669265  0.71992514  0.72728244    -0.66860
O399        O  0.14056937  0.60223236  0.76096509    -0.79150
C400        C  0.10463202  0.62427332  0.84654816     0.84290
O401        O  0.10047792  0.60725304  0.81460912    -0.66330
Ni402      Ni  0.12784235  0.61906452  0.67120377     1.27450
Ni403      Ni  0.10330556  0.67388854  0.71500439     1.26060
H404        H  0.06849372  0.63953106  0.77048347     0.38830
O405        O  0.06742344  0.86640117  0.84730364    -0.81120
O406        O  0.02385048  0.89964103  0.68183601    -0.65810
O407        O  0.05588519  0.87009875  0.77117814    -1.12410
C408        C  0.16746677  0.96162255  0.73802252     1.05770
O409        O  0.07098199  0.91869370  0.64327751    -0.79020
O410        O  0.09784008  0.87889223  0.68424855    -0.66600
Ni411      Ni  0.02778652  0.85936291  0.81797003     1.34870
C412        C  0.10738666  0.86793187  0.71459830     0.84500
O413        O  0.99452960  0.83914939  0.72857384    -0.79560
O414        O  0.98460001  0.84628715  0.79130302    -0.89830
C415        C  0.04114445  0.91534288  0.65080476     0.84080
O416        O  0.04293174  0.91114643  0.81821290    -0.68030
O417        O  0.15546528  0.94641889  0.70449028    -0.87320
C418        C  0.03926829  0.42697986  0.78811112     0.84910
C419        C  0.97365016  0.83202338  0.75732082     1.06480
H420        H  0.08479557  0.94828743  0.72542882     0.38280
O421        O  0.08537093  0.92596270  0.72320119    -1.09980
O422        O  0.11875310  0.88717878  0.74613045    -0.66630
Ni423      Ni  0.10162753  0.91608320  0.77071001     1.26350
O424        O  0.02295714  0.90833966  0.75788883    -0.66860
O425        O  0.14696633  0.95946908  0.76560050    -0.79150
C426        C  0.09406591  0.89785404  0.85020936     0.84290
O427        O  0.11626650  0.90934351  0.82225348    -0.66330
Ni428      Ni  0.11113269  0.92969077  0.67692708     1.27450
Ni429      Ni  0.03932326  0.88302378  0.72564924     1.26060
H430        H  0.05757543  0.84874815  0.76564554     0.38830
O431        O  0.37589314  0.94941450  0.66822561    -0.81120
O432        O  0.38945611  0.91827370  0.82409840    -0.65810
O433        O  0.34453680  0.90430404  0.72687526    -1.12410
C434        C  0.29801228  0.97202234  0.76917304     1.05770
O435        O  0.35347807  0.92735296  0.86238034    -0.79020
O436        O  0.29544861  0.88943374  0.80938385    -0.66600
Ni437      Ni  0.36834923  0.90306975  0.68220480     1.34870
C438        C  0.27939812  0.88004340  0.77600480     0.84500
O439        O  0.37746766  0.87298709  0.76331882    -0.79560
O440        O  0.36202786  0.85746828  0.69942966    -0.89830
C441        C  0.38060355  0.92434142  0.85728084     0.84080
O442        O  0.41576729  0.92750143  0.70005576    -0.68030
O443        O  0.29491939  0.95336665  0.80030686    -0.87320
C444        C  0.42749976  0.95243863  0.72573674     0.84910
C445        C  0.37108297  0.85182202  0.73338151     1.06480
H446        H  0.37452188  0.97141853  0.78699472     0.38280
O447        O  0.35388897  0.94724379  0.78429139    -1.09980
O448        O  0.28734244  0.90280410  0.74711701    -0.66630
Ni449      Ni  0.33434139  0.94257119  0.73281790     1.26350
O450        O  0.40991358  0.94972055  0.75613895    -0.66860
O451        O  0.32068824  0.97795921  0.74255765    -0.79150
C452        C  0.35051097  0.95168403  0.65515506     0.84290
O453        O  0.32341237  0.94210986  0.67691681    -0.66330
Ni454      Ni  0.32439210  0.93875519  0.82798259     1.27450
Ni455      Ni  0.36639102  0.91044238  0.77521024     1.26060
H456        H  0.32329178  0.88052206  0.72701052     0.38830
O457        O  0.14842599  0.57298928  0.16796420    -0.81120
O458        O  0.13489985  0.60095846  0.32700842    -0.65810
O459        O  0.17946589  0.61573555  0.22960279    -1.12410
C460        C  0.22434560  0.54574249  0.27143639     1.05770
O461        O  0.17091675  0.59145961  0.36517378    -0.79020
O462        O  0.22899525  0.62881551  0.31229194    -0.66600
Ni463      Ni  0.15594410  0.61850779  0.18487130     1.34870
C464        C  0.24492894  0.63824573  0.27891067     0.84500
O465        O  0.14649925  0.64671945  0.26705599    -0.79560
O466        O  0.16198260  0.66348893  0.20358279    -0.89830
C467        C  0.14386719  0.59467963  0.36013428     0.84080
O468        O  0.10835862  0.59246675  0.20256004    -0.68030
O469        O  0.22790952  0.56418103  0.30273037    -0.87320
C470        C  0.09731771  0.56701853  0.22786610     0.84910
C471        C  0.15249002  0.66822823  0.23747462     1.06480
H472        H  0.14914676  0.54800197  0.28951765     0.38280
O473        O  0.16989939  0.57210562  0.28688516    -1.09980
O474        O  0.23626571  0.61583628  0.24972577    -0.66630
Ni475      Ni  0.18896630  0.57686004  0.23533543     1.26350
O476        O  0.11448842  0.57034377  0.25891984    -0.66860
O477        O  0.20184256  0.54072044  0.24478070    -0.79150
C478        C  0.17305367  0.56847047  0.15707565     0.84290
O479        O  0.19972073  0.57750898  0.17955390    -0.66330
Ni480      Ni  0.19925821  0.57947976  0.33059205     1.27450
Ni481      Ni  0.15780395  0.60929314  0.27820280     1.26060
H482        H  0.20095688  0.63930365  0.23007436     0.38830
O483        O  0.41803781  0.85647616  0.35034695    -0.81120
O484        O  0.41817256  0.83143317  0.16047010    -0.65810
O485        O  0.43629783  0.85880625  0.26972653    -1.12410
C486        C  0.40446917  0.94286780  0.24652818     1.05770
O487        O  0.39284874  0.86147711  0.14223075    -0.79020
O488        O  0.45086551  0.91994334  0.17910712    -0.66600
Ni489      Ni  0.42230885  0.82451076  0.31149096     1.34870
C490        C  0.46948409  0.93288177  0.21022569     0.84500
O491        O  0.44793075  0.81472495  0.21940430    -0.79560
O492        O  0.42683665  0.78980221  0.27879519    -0.89830
C493        C  0.41657013  0.85392658  0.13674849     0.84080
O494        O  0.37443771  0.80307767  0.29506242    -0.68030
O495        O  0.40940940  0.94067977  0.21003396    -0.87320
C496        C  0.36257641  0.78579185  0.26253762     0.84910
C497        C  0.43777470  0.78849724  0.24422757     1.06480
H498        H  0.37180312  0.84848451  0.22172246     0.38280
O499        O  0.39660074  0.86620613  0.21896820    -1.09980
O500        O  0.45680308  0.92535256  0.24525355    -0.66630
Ni501      Ni  0.41416995  0.88700800  0.26888235     1.26350
O502        O  0.38023818  0.79633981  0.23019343    -0.66860
O503        O  0.39139478  0.91474427  0.26808005    -0.79150
C504        C  0.42779419  0.89059763  0.34987196     0.84290
O505        O  0.43324473  0.90834948  0.31817977    -0.66330
Ni506      Ni  0.40114209  0.89971965  0.17763578     1.27450
Ni507      Ni  0.42388959  0.84162606  0.21686967     1.26060
H508        H  0.46157305  0.87452058  0.27133276     0.38830
O509        O  0.45197257  0.64991818  0.34922698    -0.81120
O510        O  0.49705758  0.61248386  0.18663540    -0.65810
O511        O  0.46421072  0.64428978  0.27313838    -1.12410
C512        C  0.35296830  0.55165269  0.24119772     1.05770
O513        O  0.44962701  0.59104254  0.14774272    -0.79020
O514        O  0.42303278  0.63233254  0.18490580    -0.66600
Ni515      Ni  0.49223469  0.65783645  0.32051642     1.34870
C516        C  0.41340689  0.64433119  0.21403880     0.84500
O517        O  0.52578865  0.67432454  0.23094925    -0.79560
O518        O  0.53567321  0.67100995  0.29486187    -0.89830
C519        C  0.48009318  0.59608503  0.15559646     0.84080
O520        O  0.47912345  0.60709530  0.32389616    -0.68030
O521        O  0.36513834  0.56560795  0.20720721    -0.87320
C522        C  0.48271210  0.58980431  0.29554315     0.84910
C523        C  0.54658282  0.68336825  0.26023502     1.06480
H524        H  0.43644632  0.56472497  0.23175199     0.38280
O525        O  0.43535622  0.58667164  0.22770665    -1.09980
O526        O  0.40148881  0.62593496  0.24609610    -0.66630
Ni527      Ni  0.41863279  0.59811335  0.27363328     1.26350
O528        O  0.49773140  0.60606946  0.26362409    -0.66860
O529        O  0.37337655  0.55444303  0.26936686    -0.79150
C530        C  0.42561883  0.61814271  0.35194907     0.84290
O531        O  0.40367130  0.60683207  0.32366381    -0.66330
Ni532      Ni  0.40956199  0.58125546  0.18054313     1.27450
Ni533      Ni  0.48118373  0.63007118  0.22915233     1.26060
H534        H  0.46230909  0.66524160  0.26592142     0.38830
O535        O  0.44875882  0.94521229  0.97755593    -0.81120
O536        O  0.08383482  0.51560227  0.07882209    -0.65810
O537        O  0.51374496  0.50320874  0.00277142    -1.12410
C538        C  0.07578033  0.96151867  0.92477989     1.05770
O539        O  0.12271167  0.54765072  0.03293938    -0.79020
O540        O  0.10854054  0.55301262  0.95681845    -0.66600
Ni541      Ni  0.46562353  0.98333870  0.01659117     1.34870
C542        C  0.08410342  0.55124574  0.93552289     0.84500
O543        O  0.03099170  0.53252611  0.08066865    -0.79560
O544        O  0.47877758  0.52069407  0.05600771    -0.89830
C545        C  0.11579827  0.53388159  0.06723308     0.84080
O546        O  0.46158773  0.94822876  0.05490877    -0.68030
O547        O  0.10252991  0.48603199  0.94334178    -0.87320
C548        C  0.48298442  0.94013143  0.07012976     0.84910
C549        C  0.50439775  0.53706740  0.08013073     1.06480
H550        H  0.05844261  0.96477178  0.01323515     0.38280
O551        O  0.06238264  0.48807154  0.00359921    -1.09980
O552        O  0.05294055  0.52368226  0.93542606    -0.66630
Ni553      Ni  0.02715776  0.97837371  0.96517800     1.26350
O554        O  0.01645241  0.96037542  0.06641204    -0.66860
O555        O  0.04414338  0.95464904  0.92994711    -0.79150
C556        C  0.45648053  0.95064373  0.94118658     0.84290
O557        O  0.48843821  0.96692141  0.92978488    -0.66330
Ni558      Ni  0.11078039  0.51653693  0.98816776     1.27450
Ni559      Ni  0.04685902  0.50915884  0.04292750     1.26060
H560        H  0.02139819  0.52750458  0.99267059     0.38830
C561        C  0.50217146  0.56201385  0.10790471    -0.13500
C562        C  0.49475967  0.58030000  0.12908534    -0.15060
C563        C  0.46701173  0.90604505  0.09290119    -0.13500
C564        C  0.44624904  0.87892582  0.11181581    -0.15060
C565        C  0.48088212  0.53509809  0.27130561    -0.13580
C566        C  0.46616110  0.54980666  0.29611937     0.08570
C567        C  0.43096705  0.02739751  0.30861434    -0.13580
C568        C  0.41028515  0.99156765  0.29389458    -0.13580
C569        C  0.42427934  0.97913126  0.26500399     0.08570
C570        C  0.45974137  0.00105274  0.25458582    -0.13580
H571        H  0.50771816  0.55177931  0.26084392     0.12560
H572        H  0.41842961  0.03848161  0.32641219     0.12560
H573        H  0.38303151  0.97481060  0.30277857     0.12560
H574        H  0.47106558  0.99258884  0.23215988     0.12560
C575        C  0.44601176  0.71178694  0.19607704    -0.13580
C576        C  0.41691770  0.68089529  0.21335531     0.08570
C577        C  0.39410547  0.68607317  0.23735317    -0.13580
C578        C  0.40146705  0.72111005  0.24659892    -0.13580
C579        C  0.43157186  0.75227196  0.23164154     0.08570
C580        C  0.45311722  0.74746227  0.20487079    -0.13580
H581        H  0.46421456  0.70846620  0.17778145     0.12560
H582        H  0.37130551  0.66286062  0.25076902     0.12560
H583        H  0.38357583  0.72376124  0.26617238     0.12560
H584        H  0.47606244  0.77106966  0.19230834     0.12560
C585        C  0.16641259  0.55147576  0.11925926    -0.13500
C586        C  0.14476973  0.54086914  0.09296612    -0.15060
C587        C  0.10715532  0.70837939  0.28506651    -0.13580
C588        C  0.08464550  0.70304623  0.25312938     0.08570
C589        C  0.09693741  0.70510877  0.21449311    -0.13580
C590        C  0.12637311  0.70194965  0.20848718    -0.13580
C591        C  0.14254604  0.69610057  0.24120296     0.08570
C592        C  0.13625287  0.70469806  0.27906866    -0.13580
H593        H  0.09916346  0.70888872  0.31516472     0.12560
H594        H  0.08085961  0.70279676  0.18918722     0.12560
H595        H  0.13185116  0.69700586  0.17871096     0.12560
H596        H  0.14964269  0.70203021  0.30460440     0.12560
C597        C  0.27186155  0.53490813  0.29558271    -0.13580
C598        C  0.25088767  0.53490719  0.26418118     0.08570
C599        C  0.26038221  0.53205649  0.22538031    -0.13580
C600        C  0.29229672  0.53369471  0.21798236    -0.13580
C601        C  0.31519219  0.53789567  0.24924481     0.08570
C602        C  0.30359320  0.53620132  0.28821241    -0.13580
H603        H  0.26510438  0.53677872  0.32586611     0.12560
H604        H  0.24486118  0.53202604  0.20053353     0.12560
H605        H  0.30028659  0.53459882  0.18758778     0.12560
H606        H  0.32043615  0.53924878  0.31299832     0.12560
C607        C  0.29269461  0.68826836  0.23779526    -0.13580
C608        C  0.27370025  0.67672985  0.27339440     0.08570
C609        C  0.28173718  0.70264555  0.30341341    -0.13580
C610        C  0.30911718  0.73884761  0.29869183    -0.13580
C611        C  0.32918029  0.75005762  0.26384165     0.08570
C612        C  0.32014475  0.72458571  0.23305114    -0.13580
H613        H  0.28686994  0.66907817  0.21388152     0.12560
H614        H  0.26724251  0.69487152  0.33093538     0.12560
H615        H  0.31537898  0.75773727  0.32302372     0.12560
H616        H  0.33533901  0.73220732  0.20601783     0.12560
C617        C  0.05762710  0.50188876  0.24581761    -0.13580
C618        C  0.06569269  0.53126930  0.22010832     0.08570
C619        C  0.04548669  0.02485365  0.18571326    -0.13580
C620        C  0.01589680  0.99022892  0.17902780    -0.13580
C621        C  0.00624663  0.96207026  0.20696962     0.08570
C622        C  0.02837792  0.96758905  0.23911956    -0.13580
H623        H  0.07343540  0.50549150  0.27181137     0.12560
H624        H  0.05186499  0.04677581  0.16478483     0.12560
H625        H  0.99882470  0.98656779  0.15425639     0.12560
H626        H  0.52140989  0.94613425  0.26091244     0.12560
C627        C  0.40411686  0.92992456  0.88977228    -0.13500
C628        C  0.42796839  0.93809663  0.91297286    -0.15060
C629        C  0.08301921  0.94018787  0.89759849    -0.13500
C630        C  0.09147265  0.92289964  0.87668088    -0.15060
C631        C  0.24909014  0.98035755  0.79317188    -0.13580
C632        C  0.27069547  0.98182176  0.76191485     0.08570
C633        C  0.26118944  0.98496806  0.72308532    -0.13580
C634        C  0.22874682  0.98212846  0.71543554    -0.13580
C635        C  0.20536965  0.97649123  0.74647858     0.08570
C636        C  0.21683996  0.97791957  0.78555181    -0.13580
H637        H  0.25581524  0.97819310  0.82347466     0.12560
H638        H  0.27719019  0.98611894  0.69834941     0.12560
H639        H  0.22081390  0.98146859  0.68498730     0.12560
H640        H  0.19957315  0.97372685  0.81015871     0.12560
C641        C  0.92402746  0.81183748  0.71080712    -0.13580
C642        C  0.93569502  0.81277302  0.74964329     0.08570
C643        C  0.41311272  0.80773444  0.78119605    -0.13580
C644        C  0.38502765  0.81311235  0.77482161    -0.13580
C645        C  0.37980452  0.82300560  0.73695667     0.08570
C646        C  0.39567368  0.81684072  0.70440378    -0.13580
H647        H  0.94015454  0.81396912  0.68575988     0.12560
H648        H  0.42062488  0.80638139  0.81138557     0.12560
H649        H  0.37177375  0.81600833  0.80018619     0.12560
H650        H  0.39097481  0.82282166  0.67461505     0.12560
C651        C  0.09895223  0.60365715  0.88269140    -0.13500
C652        C  0.09243677  0.58133044  0.90873965    -0.15060
C653        C  0.12091877  0.79274338  0.75093950    -0.13580
C654        C  0.09287402  0.76116567  0.73360296     0.08570
C655        C  0.07200379  0.76539199  0.70503918    -0.13580
C656        C  0.07775592  0.80063856  0.69635849    -0.13580
C657        C  0.10481414  0.83178754  0.71566172     0.08570
C658        C  0.12689475  0.82736903  0.74196412    -0.13580
H659        H  0.13852162  0.79081735  0.77184708     0.12560
H660        H  0.05074682  0.74157776  0.69056592     0.12560
H661        H  0.06019007  0.80335182  0.67613404     0.12560
H662        H  0.14826297  0.85079831  0.75690209     0.12560
C663        C  0.08892855  0.49068254  0.80490233    -0.13580
C664        C  0.05763727  0.46729714  0.78408249     0.08570
C665        C  0.04948730  0.48090581  0.75046443    -0.13580
C666        C  0.07403646  0.51440359  0.73464024    -0.13580
C667        C  0.10576330  0.53765427  0.75431502     0.08570
C668        C  0.11242312  0.52629229  0.79069600    -0.13580
H669        H  0.09626919  0.98091319  0.83054426     0.12560
H670        H  0.02563226  0.46394822  0.73367882     0.12560
H671        H  0.06785466  0.52208878  0.70663516     0.12560
H672        H  0.13626850  0.54415410  0.80701597     0.12560
C673        C  0.20450494  0.79331009  0.73037578    -0.13580
C674        C  0.19804936  0.76708790  0.75981632     0.08570
C675        C  0.21975329  0.77804357  0.79348410    -0.13580
C676        C  0.24615019  0.81462961  0.79855183    -0.13580
C677        C  0.25158285  0.84120575  0.77004555     0.08570
C678        C  0.23103142  0.83001113  0.73543189    -0.13580
H679        H  0.18797093  0.78588283  0.70432454     0.12560
H680        H  0.21550282  0.75856952  0.81674128     0.12560
H681        H  0.26197979  0.82214390  0.82517508     0.12560
H682        H  0.23485391  0.84974348  0.71266184     0.12560
C683        C  0.48002864  0.49275211  0.68392524    -0.13580
C684        C  0.46088961  0.48670733  0.71905235     0.08570
C685        C  0.47212928  0.51519249  0.74658928    -0.13580
C686        C  0.00303030  0.54822351  0.74046100    -0.13580
C687        C  0.02356700  0.55331626  0.70695041     0.08570
C688        C  0.51123592  0.52609381  0.67778270    -0.13580
H689        H  0.47131575  0.47152045  0.66171137     0.12560
H690        H  0.45739998  0.01182946  0.77335047     0.12560
H691        H  0.01201054  0.56906728  0.76319883     0.12560
H692        H  0.52695989  0.52946411  0.65189947     0.12560
C693        C  0.43191403  0.91069850  0.38585103    -0.13500
C694        C  0.43639461  0.93349800  0.41038382    -0.15060
C695        C  0.43768548  0.57479681  0.39740836    -0.13500
C696        C  0.42880086  0.59270286  0.37775250    -0.15060
C697        C  0.09633157  0.58102351  0.41506701    -0.13500
C698        C  0.12049478  0.58913643  0.39253423    -0.15060
C699        C  0.35599973  0.96479206  0.61546546    -0.13500
C700        C  0.37741642  0.97348675  0.58924799    -0.15060
C701        C  0.05465410  0.60897262  0.59315281    -0.13500
C702        C  0.07581111  0.63639125  0.61139205    -0.15060
C703        C  0.02074523  0.95187250  0.60422328    -0.13500
C704        C  0.02763259  0.93243392  0.62432450    -0.15060
O705        O  0.57396018  0.07324991  0.47879910    -0.81120
O706        O  0.93854401  0.49843743  0.57683762    -0.65810
O707        O  0.50969156  0.51347579  0.50172695    -1.12410
C708        C  0.94590211  0.05285247  0.42299959     1.05770
O709        O  0.90033366  0.46566810  0.53068593    -0.79020
O710        O  0.91711064  0.46037505  0.45627136    -0.66600
Ni711      Ni  0.55769275  0.03378232  0.51621855     1.34870
C712        C  0.94221756  0.46394599  0.43508208     0.84500
O713        O  0.49254016  0.48293833  0.57908280    -0.79560
O714        O  0.54456140  0.49495121  0.55390030    -0.89830
C715        C  0.90672784  0.47984516  0.56467522     0.84080
O716        O  0.56067662  0.06698242  0.55606765    -0.68030
O717        O  0.91941610  0.02579774  0.43936097    -0.87320
C718        C  0.53899502  0.07501208  0.57026601     0.84910
C719        C  0.51890882  0.47802855  0.57778937     1.06480
H720        H  0.96237645  0.04924344  0.51168398     0.38280
O721        O  0.95972440  0.02657063  0.50192072    -1.09980
O722        O  0.97200542  0.49345192  0.43362112    -0.66630
Ni723      Ni  0.49582916  0.03830128  0.46426753     1.26350
O724        O  0.50562179  0.05493812  0.56516738    -0.66860
O725        O  0.97805002  0.06178663  0.42936767    -0.79150
C726        C  0.56717353  0.06829325  0.44220446     0.84290
O727        O  0.53546694  0.05189424  0.42975695    -0.66330
Ni728      Ni  0.91182193  0.49603712  0.48513222     1.27450
Ni729      Ni  0.97604743  0.50609716  0.54142174     1.26060
H730        H  0.50255881  0.48944156  0.49140152     0.38830
O731        O  0.61374624  0.15816971  0.84747715    -0.81120
O732        O  0.60605832  0.18463286  0.65881843    -0.65810
O733        O  0.59358022  0.15603526  0.76788911    -1.12410
C734        C  0.62762474  0.07499978  0.73812887     1.05770
O735        O  0.63179493  0.15650025  0.63688561    -0.79020
O736        O  0.57772077  0.09541333  0.67612029    -0.66600
Ni737      Ni  0.60780567  0.18991398  0.80982024     1.34870
C738        C  0.56052717  0.08220786  0.70816405     0.84500
O739        O  0.57793608  0.19924663  0.72016442    -0.79560
O740        O  0.60122422  0.22420466  0.77869039    -0.89830
C741        C  0.60678161  0.16244148  0.63422159     0.84080
O742        O  0.65521370  0.21265199  0.79143644    -0.68030
O743        O  0.62414243  0.07899509  0.70161425    -0.87320
C744        C  0.66547490  0.23057002  0.75894767     0.84910
C745        C  0.58856795  0.22532336  0.74506189     1.06720
H746        H  0.65687532  0.16938169  0.71611054     0.38280
O747        O  0.63221314  0.15092290  0.71417007    -1.09980
O748        O  0.57445528  0.09019036  0.74254722    -0.66630
Ni749      Ni  0.61714836  0.12920839  0.76462353     1.26350
O750        O  0.64669267  0.21992513  0.72728225    -0.66860
O751        O  0.64056939  0.10223237  0.76096499    -0.79150
C752        C  0.60463200  0.12427335  0.84654802     0.84290
O753        O  0.60047793  0.10725306  0.81460900    -0.66330
Ni754      Ni  0.62784235  0.11906447  0.67120365     1.27450
Ni755      Ni  0.60330557  0.17388852  0.71500420     1.26060
H756        H  0.56849372  0.13953106  0.77048328     0.38830
O757        O  0.56742335  0.36640105  0.84730347    -0.81120
O758        O  0.52385045  0.39964109  0.68183589    -0.65810
O759        O  0.55588512  0.37009870  0.77117798    -1.12410
C760        C  0.66746671  0.46162251  0.73802246     1.05770
O761        O  0.57098197  0.41869377  0.64327740    -0.79020
O762        O  0.59784004  0.37889225  0.68424839    -0.66600
Ni763      Ni  0.52778645  0.35936284  0.81796987     1.34870
C764        C  0.60738660  0.36793186  0.71459813     0.84500
O765        O  0.49452953  0.33914940  0.72857366    -0.79560
O766        O  0.48459995  0.34628712  0.79130286    -0.89830
C767        C  0.54114443  0.41534297  0.65080466     0.84080
O768        O  0.54293168  0.41114636  0.81821280    -0.68030
O769        O  0.65546524  0.44641888  0.70449020    -0.87320
C770        C  0.53926837  0.92697988  0.78811117     0.84910
C771        C  0.47365010  0.33202338  0.75732066     1.06480
H772        H  0.58479553  0.44828748  0.72542875     0.38280
O773        O  0.58537088  0.42596271  0.72320109    -1.09980
O774        O  0.61875303  0.38717874  0.74613030    -0.66630
Ni775      Ni  0.60162746  0.41608314  0.77070989     1.26350
O776        O  0.52295710  0.40833966  0.75788872    -0.66860
O777        O  0.64696625  0.45946903  0.76560042    -0.79150
C778        C  0.59406583  0.39785391  0.85020922     0.84290
O779        O  0.61626642  0.40934340  0.82225334    -0.66330
Ni780      Ni  0.61113265  0.42969081  0.67692698     1.27450
Ni781      Ni  0.53932320  0.38302379  0.72564910     1.26060
H782        H  0.55757535  0.34874810  0.76564536     0.38830
O783        O  0.87589311  0.44941457  0.66822569    -0.81120
O784        O  0.88945608  0.41827370  0.82409847    -0.65810
O785        O  0.84453677  0.40430409  0.72687533    -1.12410
C786        C  0.79801223  0.47202233  0.76917316     1.05770
O787        O  0.85347804  0.42735294  0.86238043    -0.79020
O788        O  0.79544857  0.38943371  0.80938390    -0.66600
Ni789      Ni  0.86834919  0.40306981  0.68220485     1.34870
C790        C  0.77939809  0.38004341  0.77600486     0.84500
O791        O  0.87746762  0.37298712  0.76331885    -0.79560
O792        O  0.86202780  0.35746833  0.69942968    -0.89830
C793        C  0.88060353  0.42434142  0.85728092     0.84080
O794        O  0.91576725  0.42750148  0.70005581    -0.68030
O795        O  0.79491933  0.45336662  0.80030697    -0.87320
C796        C  0.92749973  0.45243867  0.72573680     0.84910
C797        C  0.87108291  0.35182205  0.73338153     1.06480
H798        H  0.87452184  0.47141854  0.78699484     0.38280
O799        O  0.85388893  0.44724380  0.78429150    -1.09980
O800        O  0.78734240  0.40280413  0.74711709    -0.66630
Ni801      Ni  0.83434136  0.44257123  0.73281802     1.26350
O802        O  0.90991355  0.44972058  0.75613902    -0.66860
O803        O  0.82068821  0.47795925  0.74255780    -0.79150
C804        C  0.85051095  0.45168414  0.65515518     0.84290
O805        O  0.82341235  0.44210994  0.67691693    -0.66330
Ni806      Ni  0.82439205  0.43875516  0.82798269     1.27450
Ni807      Ni  0.86639099  0.41044240  0.77521031     1.26060
H808        H  0.82329175  0.38052211  0.72701058     0.38830
O809        O  0.64842598  0.07298951  0.16796416    -0.81120
O810        O  0.63490002  0.10095851  0.32700855    -0.65810
O811        O  0.67946595  0.11573566  0.22960285    -1.12410
C812        C  0.72434550  0.04574237  0.27143616     1.05770
O813        O  0.67091686  0.09145947  0.36517381    -0.79020
O814        O  0.72899533  0.12881541  0.31229195    -0.66600
Ni815      Ni  0.65594414  0.11850800  0.18487143     1.34870
C816        C  0.74492900  0.13824567  0.27891067     0.84500
O817        O  0.64649942  0.14671958  0.26705625    -0.79560
O818        O  0.66198269  0.16348912  0.20358305    -0.89830
C819        C  0.64386733  0.09467957  0.36013437     0.84080
O820        O  0.60835866  0.09246694  0.20256023    -0.68030
O821        O  0.72790949  0.06418089  0.30273017    -0.87320
C822        C  0.59731778  0.06701869  0.22786625     0.84910
C823        C  0.65249016  0.16822839  0.23747493     1.06480
H824        H  0.64914678  0.04800199  0.28951759     0.38280
O825        O  0.66989943  0.07210563  0.28688513    -1.09980
O826        O  0.73626574  0.11583625  0.24972572    -0.66630
Ni827      Ni  0.68896629  0.07686009  0.23533537     1.26350
O828        O  0.61448850  0.07034391  0.25891997    -0.66860
O829        O  0.70184247  0.04072041  0.24478050    -0.79150
C830        C  0.67305362  0.06847063  0.15707560     0.84290
O831        O  0.69972068  0.07750909  0.17955382    -0.66330
Ni832      Ni  0.69925825  0.07947964  0.33059197     1.27450
Ni833      Ni  0.65780406  0.10929322  0.27820291     1.26060
H834        H  0.70095696  0.13930374  0.23007443     0.38830
O835        O  0.91803726  0.35647668  0.35034685    -0.81120
O836        O  0.91817267  0.33143309  0.16047021    -0.65810
O837        O  0.93629742  0.35880658  0.26972657    -1.12410
C838        C  0.90446851  0.44286777  0.24652709     1.05770
O839        O  0.89284874  0.36147675  0.14223034    -0.79020
O840        O  0.95086523  0.41994336  0.17910687    -0.66600
Ni841      Ni  0.92230847  0.32451123  0.31149113     1.34870
C842        C  0.96948366  0.43288191  0.21022554     0.84500
O843        O  0.94793071  0.31472519  0.21940479    -0.79560
O844        O  0.92683647  0.28980263  0.27879568    -0.89830
C845        C  0.91657027  0.35392638  0.13674840     0.84080
O846        O  0.87443736  0.30307791  0.29506240    -0.68030
O847        O  0.90940860  0.44067947  0.21003289    -0.87320
C848        C  0.86257621  0.28579197  0.26253764     0.84910
C849        C  0.93777460  0.28849755  0.24422815     1.06480
H850        H  0.87180280  0.34848442  0.22172199     0.38280
O851        O  0.89660041  0.36620610  0.21896780    -1.09980
O852        O  0.95680249  0.42535281  0.24525332    -0.66630
Ni853      Ni  0.91416936  0.38700818  0.26888198     1.26350
O854        O  0.88023806  0.29633990  0.23019350    -0.66860
O855        O  0.89139410  0.41474437  0.26807919    -0.79150
C856        C  0.92779351  0.39059810  0.34987171     0.84290
O857        O  0.93324387  0.40834982  0.31817943    -0.66330
Ni858      Ni  0.90114174  0.39971935  0.17763508     1.27450
Ni859      Ni  0.92388944  0.34162618  0.21686973     1.26060
H860        H  0.96157263  0.37452102  0.27133288     0.38830
O861        O  0.95197222  0.14991792  0.34922715    -0.81120
O862        O  0.99705742  0.11248369  0.18663559    -0.65810
O863        O  0.96421053  0.14428963  0.27313854    -1.12410
C864        C  0.85296815  0.05165261  0.24119754     1.05770
O865        O  0.94962711  0.09104319  0.14774265    -0.79020
O866        O  0.92303268  0.13233286  0.18490611    -0.66600
Ni867      Ni  0.99223445  0.15783638  0.32051665     1.34870
C868        C  0.91340671  0.14433132  0.21403922     0.84500
O869        O  0.02578857  0.17432429  0.23094953    -0.79560
O870        O  0.03567301  0.17100988  0.29486222    -0.89830
C871        C  0.98009310  0.09608522  0.15559649     0.84080
O872        O  0.97912335  0.10709536  0.32389647    -0.68030
O873        O  0.86513825  0.06560803  0.20720709    -0.87320
C874        C  0.98271180  0.08980419  0.29554354     0.84910
C875        C  0.04658268  0.18336807  0.26023536     1.06480
H876        H  0.93644608  0.06472491  0.23175186     0.38280
O877        O  0.93535604  0.08667163  0.22770662    -1.09980
O878        O  0.90148857  0.12593486  0.24609637    -0.66630
Ni879      Ni  0.91863259  0.09811319  0.27363333     1.26350
O880        O  0.99773097  0.10606905  0.26362430    -0.66860
O881        O  0.87337635  0.05444289  0.26936672    -0.79150
C882        C  0.92561857  0.11814238  0.35194920     0.84290
O883        O  0.90367104  0.10683171  0.32366394    -0.66330
Ni884      Ni  0.90956197  0.08125580  0.18054305     1.27450
Ni885      Ni  0.98118359  0.13007103  0.22915251     1.26060
H886        H  0.96230892  0.16524145  0.26592155     0.38830
O887        O  0.94875884  0.44521222  0.97755602    -0.81120
O888        O  0.58383467  0.01560237  0.07882210    -0.65810
O889        O  0.01374486  0.00320884  0.00277136    -1.12410
C890        C  0.57578031  0.46151854  0.92477980     1.05770
O891        O  0.62271152  0.04765086  0.03293940    -0.79020
O892        O  0.60854049  0.05301272  0.95681843    -0.66600
Ni893      Ni  0.96562360  0.48333859  0.01659133     1.34870
C894        C  0.58410338  0.05124582  0.93552283     0.84500
O895        O  0.53099152  0.03252618  0.08066859    -0.79560
O896        O  0.97877743  0.02069421  0.05600755    -0.89830
C897        C  0.61579813  0.03388171  0.06723310     0.84080
O898        O  0.96158785  0.44822859  0.05490884    -0.68030
O899        O  0.60252993  0.98603211  0.94334185    -0.87320
C900        C  0.98298458  0.44013130  0.07012982     0.84910
C901        C  0.00439756  0.03706753  0.08013063     1.06480
H902        H  0.55844266  0.46477161  0.01323510     0.38280
O903        O  0.56238258  0.98807165  0.00359920    -1.09980
O904        O  0.55294052  0.02368232  0.93542599    -0.66630
Ni905      Ni  0.52715780  0.47837360  0.96517801     1.26350
O906        O  0.51645253  0.46037529  0.06641207    -0.66860
O907        O  0.54414337  0.45464892  0.92994707    -0.79150
C908        C  0.95648054  0.45064370  0.94118666     0.84290
O909        O  0.98843822  0.46692137  0.92978496    -0.66330
Ni910      Ni  0.61078033  0.01653707  0.98816781     1.27450
Ni911      Ni  0.54685889  0.00915894  0.04292746     1.26060
H912        H  0.52139813  0.02750468  0.99267048     0.38830
C913        C  0.00217123  0.06201397  0.10790461    -0.13500
C914        C  0.99475947  0.08030012  0.12908527    -0.15060
C915        C  0.96701194  0.40604493  0.09290126    -0.13500
C916        C  0.94624927  0.37892568  0.11181586    -0.15060
C917        C  0.98088236  0.03509775  0.27130781    -0.13580
C918        C  0.96616075  0.04980659  0.29612023     0.08570
C919        C  0.93096796  0.52739717  0.30861465    -0.13580
C920        C  0.91028575  0.49156734  0.29389484    -0.13580
C921        C  0.92427894  0.47913141  0.26500254     0.08570
C922        C  0.95974047  0.50105332  0.25458256    -0.13580
H923        H  0.00771870  0.05177884  0.26084697     0.12560
H924        H  0.91843106  0.53848088  0.32641400     0.12560
H925        H  0.88303255  0.47480994  0.30278029     0.12560
H926        H  0.97106389  0.49258977  0.23215524     0.12560
C927        C  0.94601123  0.21178708  0.19607720    -0.13580
C928        C  0.91691756  0.18089546  0.21335608     0.08570
C929        C  0.89410577  0.18607342  0.23735468    -0.13580
C930        C  0.90146740  0.22111032  0.24660043    -0.13580
C931        C  0.93157182  0.25227221  0.23164236     0.08570
C932        C  0.95311672  0.24746242  0.20487097    -0.13580
H933        H  0.96421368  0.20846631  0.17778101     0.12560
H934        H  0.87130609  0.16286092  0.25077099     0.12560
H935        H  0.88357646  0.22376151  0.26617435     0.12560
H936        H  0.97606160  0.27106977  0.19230795     0.12560
C937        C  0.66641247  0.05147587  0.11925924    -0.13500
C938        C  0.64476958  0.04086924  0.09296612    -0.15060
C939        C  0.60715521  0.20837914  0.28506698    -0.13580
C940        C  0.58464543  0.20304601  0.25312982     0.08570
C941        C  0.59693743  0.20510875  0.21449355    -0.13580
C942        C  0.62637323  0.20194984  0.20848761    -0.13580
C943        C  0.64254616  0.19610071  0.24120336     0.08570
C944        C  0.63625288  0.20469803  0.27906909    -0.13580
H945        H  0.59916328  0.20888832  0.31516519     0.12560
H946        H  0.58085965  0.20279678  0.18918766     0.12560
H947        H  0.63185138  0.19700621  0.17871137     0.12560
H948        H  0.64964270  0.20203016  0.30460483     0.12560
C949        C  0.77186127  0.03490771  0.29558242    -0.13580
C950        C  0.75088749  0.03490698  0.26418088     0.08570
C951        C  0.76038211  0.03205645  0.22538000    -0.13580
C952        C  0.79229662  0.03369467  0.21798205    -0.13580
C953        C  0.81519201  0.03789548  0.24924453     0.08570
C954        C  0.80359292  0.03620091  0.28821212    -0.13580
H955        H  0.76510403  0.03677815  0.32586583     0.12560
H956        H  0.74486115  0.03202615  0.20053322     0.12560
H957        H  0.80028657  0.03459895  0.18758748     0.12560
H958        H  0.82043580  0.03924823  0.31299806     0.12560
C959        C  0.79269480  0.18826829  0.23779538    -0.13580
C960        C  0.77370030  0.17672980  0.27339443     0.08570
C961        C  0.78173704  0.20264554  0.30341334    -0.13580
C962        C  0.80911697  0.23884763  0.29869175    -0.13580
C963        C  0.82918019  0.25005764  0.26384167     0.08570
C964        C  0.82014488  0.22458567  0.23305127    -0.13580
H965        H  0.78687029  0.16907806  0.21388171     0.12560
H966        H  0.76724225  0.19487152  0.33093524     0.12560
H967        H  0.81537860  0.25773733  0.32302357     0.12560
H968        H  0.83533926  0.23220727  0.20601803     0.12560
C969        C  0.55762763  0.00188871  0.24581731    -0.13580
C970        C  0.56569283  0.03126941  0.22010842     0.08570
C971        C  0.54548684  0.52485348  0.18571298    -0.13580
C972        C  0.51589686  0.49022879  0.17902757    -0.13580
C973        C  0.50624638  0.46207030  0.20696969     0.08570
C974        C  0.52837747  0.46758915  0.23911986    -0.13580
H975        H  0.57343616  0.00549136  0.27181083     0.12560
H976        H  0.55186538  0.54677553  0.16478431     0.12560
H977        H  0.49882495  0.48656760  0.15425596     0.12560
H978        H  0.02140897  0.44613452  0.26091309     0.12560
C979        C  0.90411686  0.42992457  0.88977235    -0.13500
C980        C  0.92796839  0.43809663  0.91297294    -0.15060
C981        C  0.58301915  0.44018774  0.89759839    -0.13500
C982        C  0.59147258  0.42289950  0.87668076    -0.15060
C983        C  0.74909002  0.48035747  0.79317194    -0.13580
C984        C  0.77069539  0.48182172  0.76191494     0.08570
C985        C  0.76118940  0.48496803  0.72308540    -0.13580
C986        C  0.72874678  0.48212842  0.71543556    -0.13580
C987        C  0.70536958  0.47649117  0.74647857     0.08570
C988        C  0.71683985  0.47791949  0.78555182    -0.13580
H989        H  0.75581509  0.47819300  0.82347472     0.12560
H990        H  0.77719019  0.48611893  0.69834951     0.12560
H991        H  0.72081390  0.48146856  0.68498731     0.12560
H992        H  0.69957301  0.47372675  0.81015869     0.12560
C993        C  0.42402738  0.31183750  0.71080698    -0.13580
C994        C  0.43569495  0.31277302  0.74964314     0.08570
C995        C  0.91311263  0.30773441  0.78119597    -0.13580
C996        C  0.88502757  0.31311233  0.77482157    -0.13580
C997        C  0.87980443  0.32300560  0.73695664     0.08570
C998        C  0.89567356  0.31684072  0.70440373    -0.13580
H999        H  0.44015445  0.31396914  0.68575973     0.12560
H1000       H  0.92062481  0.30638135  0.81138548     0.12560
H1001       H  0.87177368  0.31600831  0.80018617     0.12560
H1002       H  0.89097468  0.32282167  0.67461501     0.12560
C1003       C  0.59895220  0.10365719  0.88269127    -0.13500
C1004       C  0.59243673  0.08133050  0.90873954    -0.15060
C1005       C  0.62091877  0.29274338  0.75093925    -0.13580
C1006       C  0.59287403  0.26116568  0.73360271     0.08570
C1007       C  0.57200379  0.26539199  0.70503895    -0.13580
C1008       C  0.57775589  0.30063856  0.69635827    -0.13580
C1009       C  0.60481411  0.33178754  0.71566151     0.08570
C1010       C  0.62689473  0.32736903  0.74196389    -0.13580
H1011       H  0.63852164  0.29081736  0.77184682     0.12560
H1012       H  0.55074681  0.24157776  0.69056569     0.12560
H1013       H  0.56019003  0.30335181  0.67613384     0.12560
H1014       H  0.64826296  0.35079832  0.75690186     0.12560
C1015       C  0.58892862  0.99068258  0.80490231    -0.13580
C1016       C  0.55763735  0.96729715  0.78408248     0.08570
C1017       C  0.54948738  0.98090578  0.75046438    -0.13580
C1018       C  0.57403652  0.01440356  0.73464018    -0.13580
C1019       C  0.60576336  0.03765427  0.75431496     0.08570
C1020       C  0.61242318  0.02629232  0.79069595    -0.13580
H1021       H  0.59626915  0.48091309  0.83054421     0.12560
H1022       H  0.52563235  0.96394817  0.73367877     0.12560
H1023       H  0.56785472  0.02208873  0.70663509     0.12560
H1024       H  0.63626855  0.04415416  0.80701593     0.12560
C1025       C  0.70450494  0.29331014  0.73037569    -0.13580
C1026       C  0.69804936  0.26708790  0.75981618     0.08570
C1027       C  0.71975328  0.27804353  0.79348397    -0.13580
C1028       C  0.74615016  0.31462957  0.79855177    -0.13580
C1029       C  0.75158282  0.34120575  0.77004554     0.08570
C1030       C  0.73103140  0.33001117  0.73543187    -0.13580
H1031       H  0.68797094  0.28588291  0.70432446     0.12560
H1032       H  0.71550282  0.25856945  0.81674111     0.12560
H1033       H  0.76197975  0.32214383  0.82517503     0.12560
H1034       H  0.73485389  0.34974355  0.71266186     0.12560
C1035       C  0.98002865  0.99275202  0.68392519    -0.13580
C1036       C  0.96088962  0.98670725  0.71905230     0.08570
C1037       C  0.97212928  0.01519243  0.74658920    -0.13580
C1038       C  0.50303031  0.04822348  0.74046088    -0.13580
C1039       C  0.52356702  0.05331621  0.70695031     0.08570
C1040       C  0.01123592  0.02609371  0.67778263    -0.13580
H1041       H  0.97131577  0.97152034  0.66171135     0.12560
H1042       H  0.95739997  0.51182947  0.77335058     0.12560
H1043       H  0.51201055  0.06906727  0.76319869     0.12560
H1044       H  0.02695989  0.02946400  0.65189941     0.12560
C1045       C  0.93191347  0.41069906  0.38585072    -0.13500
C1046       C  0.93639420  0.43349853  0.41038362    -0.15060
C1047       C  0.93768533  0.07479638  0.39740825    -0.13500
C1048       C  0.92880069  0.09270251  0.37775256    -0.15060
C1049       C  0.59633167  0.08102335  0.41506706    -0.13500
C1050       C  0.62049492  0.08913631  0.39253433    -0.15060
C1051       C  0.85599972  0.46479226  0.61546562    -0.13500
C1052       C  0.87741643  0.47348701  0.58924816    -0.15060
C1053       C  0.55465406  0.10897246  0.59315266    -0.13500
C1054       C  0.57581107  0.13639111  0.61139188    -0.15060
C1055       C  0.52074522  0.45187263  0.60422323    -0.13500
C1056       C  0.52763259  0.43243404  0.62432442    -0.15060
O1057       O  0.57396016  0.57324997  0.47879914    -0.81120
O1058       O  0.93854393  0.99843703  0.57683738    -0.65810
O1059       O  0.50969160  0.01347573  0.50172689    -1.12410
C1060       C  0.94590225  0.55285328  0.42299998     1.05770
O1061       O  0.90033359  0.96566749  0.53068575    -0.79020
O1062       O  0.91711091  0.96037418  0.45627140    -0.66600
Ni1063     Ni  0.55769271  0.53378238  0.51621859     1.34870
C1064       C  0.94221788  0.96394525  0.43508211     0.84500
O1065       O  0.49254022  0.98293832  0.57908276    -0.79560
O1066       O  0.54456144  0.99495115  0.55390026    -0.89830
C1067       C  0.90672776  0.97984468  0.56467499     0.84080
O1068       O  0.56067659  0.56698247  0.55606770    -0.68030
O1069       O  0.91941620  0.52579882  0.43936161    -0.87320
C1070       C  0.53899498  0.57501211  0.57026609     0.84910
C1071       C  0.51890887  0.97802852  0.57778934     1.06480
H1072       H  0.96237670  0.54924408  0.51168434     0.38280
O1073       O  0.95972452  0.52657124  0.50192100    -1.09980
O1074       O  0.97200557  0.99345137  0.43362093    -0.66630
Ni1075     Ni  0.49582914  0.53830137  0.46426762     1.26350
O1076       O  0.50562176  0.55493815  0.56516749    -0.66860
O1077       O  0.97805011  0.56178721  0.42936790    -0.79150
C1078       C  0.56717349  0.56829332  0.44220451     0.84290
O1079       O  0.53546690  0.55189432  0.42975701    -0.66330
Ni1080     Ni  0.91182188  0.99603628  0.48513181     1.27450
Ni1081     Ni  0.97604739  0.00609675  0.54142159     1.26060
H1082       H  0.50255885  0.98944149  0.49140148     0.38830
O1083       O  0.61374621  0.65816968  0.84747723    -0.81120
O1084       O  0.60605827  0.68463285  0.65881854    -0.65810
O1085       O  0.59358017  0.65603523  0.76788921    -1.12410
C1086       C  0.62762466  0.57499974  0.73812893     1.05770
O1087       O  0.63179488  0.65650025  0.63688570    -0.79020
O1088       O  0.57772070  0.59541333  0.67612037    -0.66600
Ni1089     Ni  0.60780564  0.68991395  0.80982033     1.34870
C1090       C  0.56052711  0.58220785  0.70816412     0.84500
O1091       O  0.57793604  0.69924661  0.72016453    -0.79560
O1092       O  0.60122419  0.72420464  0.77869049    -0.89830
C1093       C  0.60678157  0.66244148  0.63422168     0.84080
O1094       O  0.65521366  0.71265196  0.79143652    -0.68030
O1095       O  0.62414233  0.57899504  0.70161431    -0.87320
C1096       C  0.66547486  0.73056997  0.75894774     0.84910
C1097       C  0.58856792  0.72532334  0.74506199     1.06720
H1098       H  0.65687526  0.66938165  0.71611061     0.38280
O1099       O  0.63221308  0.65092287  0.71417015    -1.09980
O1100       O  0.57445522  0.59019033  0.74254729    -0.66630
Ni1101     Ni  0.61714831  0.62920836  0.76462360     1.26350
O1102       O  0.64669261  0.71992509  0.72728233    -0.66860
O1103       O  0.64056933  0.60223233  0.76096504    -0.79150
C1104       C  0.60463197  0.62427332  0.84654810     0.84290
O1105       O  0.60047788  0.60725302  0.81460907    -0.66330
Ni1106     Ni  0.62784228  0.61906444  0.67120372     1.27450
Ni1107     Ni  0.60330552  0.67388849  0.71500429     1.26060
H1108       H  0.56849368  0.63953104  0.77048338     0.38830
O1109       O  0.56742343  0.86640113  0.84730349    -0.81120
O1110       O  0.52385047  0.89964108  0.68183590    -0.65810
O1111       O  0.55588518  0.87009873  0.77117800    -1.12410
C1112       C  0.66746676  0.96162254  0.73802240     1.05770
O1113       O  0.57098197  0.91869372  0.64327739    -0.79020
O1114       O  0.59784006  0.87889223  0.68424841    -0.66600
Ni1115     Ni  0.52778652  0.85936289  0.81796990     1.34870
C1116       C  0.60738664  0.86793187  0.71459815     0.84500
O1117       O  0.49452958  0.83914940  0.72857370    -0.79560
O1118       O  0.48460001  0.84628715  0.79130290    -0.89830
C1119       C  0.54114445  0.91534294  0.65080466     0.84080
O1120       O  0.54293175  0.91114641  0.81821279    -0.68030
O1121       O  0.65546527  0.94641889  0.70449015    -0.87320
C1122       C  0.53926830  0.42697984  0.78811119     0.84910
C1123       C  0.47365015  0.83202339  0.75732070     1.06480
H1124       H  0.58479557  0.94828736  0.72542871     0.38280
O1125       O  0.58537092  0.92596268  0.72320107    -1.09980
O1126       O  0.61875309  0.88717877  0.74613031    -0.66630
Ni1127     Ni  0.60162752  0.91608317  0.77070988     1.26350
O1128       O  0.52295714  0.90833966  0.75788873    -0.66860
O1129       O  0.64696632  0.95946906  0.76560038    -0.79150
C1130       C  0.59406591  0.89785399  0.85020922     0.84290
O1131       O  0.61626649  0.90934347  0.82225334    -0.66330
Ni1132     Ni  0.61113267  0.92969078  0.67692695     1.27450
Ni1133     Ni  0.53932324  0.88302378  0.72564912     1.26060
H1134       H  0.55757542  0.84874813  0.76564539     0.38830
O1135       O  0.87589310  0.94941439  0.66822558    -0.81120
O1136       O  0.88945604  0.91827365  0.82409840    -0.65810
O1137       O  0.84453675  0.90430395  0.72687524    -1.12410
C1138       C  0.79801224  0.97202229  0.76917295     1.05770
O1139       O  0.85347799  0.92735291  0.86238031    -0.79020
O1140       O  0.79544854  0.88943368  0.80938380    -0.66600
Ni1141     Ni  0.86834919  0.90306964  0.68220479     1.34870
C1142       C  0.77939807  0.88004334  0.77600475     0.84500
O1143       O  0.87746761  0.87298702  0.76331884    -0.79560
O1144       O  0.86202783  0.85746818  0.69942968    -0.89830
C1145       C  0.88060347  0.92434138  0.85728082     0.84080
O1146       O  0.91576724  0.92750134  0.70005577    -0.68030
O1147       O  0.79491934  0.95336660  0.80030678    -0.87320
C1148       C  0.92749971  0.95243854  0.72573673     0.84910
C1149       C  0.87108293  0.85182194  0.73338155     1.06480
H1150       H  0.87452182  0.97141846  0.78699467     0.38280
O1151       O  0.85388891  0.94724372  0.78429135    -1.09980
O1152       O  0.78734239  0.90280404  0.74711696    -0.66630
Ni1153     Ni  0.83434134  0.94257111  0.73281785     1.26350
O1154       O  0.90991352  0.94972047  0.75613894    -0.66860
O1155       O  0.82068820  0.97795914  0.74255756    -0.79150
C1156       C  0.85051092  0.95168390  0.65515501     0.84290
O1157       O  0.82341233  0.94210975  0.67691675    -0.66330
Ni1158     Ni  0.82439203  0.93875513  0.82798253     1.27450
Ni1159     Ni  0.86639096  0.91044231  0.77521023     1.26060
H1160       H  0.82329173  0.88052197  0.72701050     0.38830
O1161       O  0.64842589  0.57298920  0.16796436    -0.81120
O1162       O  0.63489994  0.60095845  0.32700855    -0.65810
O1163       O  0.67946588  0.61573550  0.22960288    -1.12410
C1164       C  0.72434566  0.54574247  0.27143641     1.05770
O1165       O  0.67091683  0.59145955  0.36517387    -0.79020
O1166       O  0.72899529  0.62881547  0.31229197    -0.66600
Ni1167     Ni  0.65594406  0.61850774  0.18487143     1.34870
C1168       C  0.74492896  0.63824569  0.27891069     0.84500
O1169       O  0.64649931  0.64671943  0.26705613    -0.79560
O1170       O  0.66198262  0.66348890  0.20358293    -0.89830
C1171       C  0.64386727  0.59467958  0.36013440     0.84080
O1172       O  0.60835860  0.59246676  0.20256026    -0.68030
O1173       O  0.72790958  0.56418102  0.30273038    -0.87320
C1174       C  0.59731772  0.56701851  0.22786629     0.84910
C1175       C  0.65249007  0.66822821  0.23747478     1.06480
H1176       H  0.64914680  0.54800193  0.28951775     0.38280
O1177       O  0.66989943  0.57210558  0.28688525    -1.09980
O1178       O  0.73626571  0.61583623  0.24972579    -0.66630
Ni1179     Ni  0.68896630  0.57685998  0.23533550     1.26350
O1180       O  0.61448844  0.57034374  0.25892000    -0.66860
O1181       O  0.70184259  0.54072040  0.24478073    -0.79150
C1182       C  0.67305357  0.56847041  0.15707573     0.84290
O1183       O  0.69972065  0.57750891  0.17955393    -0.66330
Ni1184     Ni  0.69925828  0.57947972  0.33059210     1.27450
Ni1185     Ni  0.65780399  0.60929311  0.27820292     1.26060
H1186       H  0.70095688  0.63930360  0.23007443     0.38830
O1187       O  0.91803802  0.85647589  0.35034698    -0.81120
O1188       O  0.91817248  0.83143316  0.16047003    -0.65810
O1189       O  0.93629796  0.85880606  0.26972649    -1.12410
C1190       C  0.90446937  0.94286774  0.24652861     1.05770
O1191       O  0.89284867  0.86147718  0.14223091    -0.79020
O1192       O  0.95086555  0.91994327  0.17910723    -0.66600
Ni1193     Ni  0.92230898  0.82451051  0.31149086     1.34870
C1194       C  0.96948419  0.93288164  0.21022575     0.84500
O1195       O  0.94793076  0.81472483  0.21940407    -0.79560
O1196       O  0.92683670  0.78980198  0.27879494    -0.89830
C1197       C  0.91657003  0.85392662  0.13674850     0.84080
O1198       O  0.87443784  0.80307752  0.29506240    -0.68030
O1199       O  0.90940964  0.94067981  0.21003438    -0.87320
C1200       C  0.86257647  0.78579175  0.26253759     0.84910
C1201       C  0.93777473  0.78849709  0.24422728     1.06480
H1202       H  0.87180319  0.84848448  0.22172264     0.38280
O1203       O  0.89660082  0.86620607  0.21896834    -1.09980
O1204       O  0.95680325  0.92535240  0.24525364    -0.66630
Ni1205     Ni  0.91417013  0.88700786  0.26888250     1.26350
O1206       O  0.88023821  0.79633972  0.23019338    -0.66860
O1207       O  0.89139499  0.91474415  0.26808040    -0.79150
C1208       C  0.92779443  0.89059737  0.34987206     0.84290
O1209       O  0.93324501  0.90834927  0.31817990    -0.66330
Ni1210     Ni  0.90114216  0.89971970  0.17763605     1.27450
Ni1211     Ni  0.92388962  0.84162597  0.21686962     1.26060
H1212       H  0.96157319  0.87452037  0.27133269     0.38830
O1213       O  0.95197268  0.64991824  0.34922681    -0.81120
O1214       O  0.99705772  0.61248409  0.18663519    -0.65810
O1215       O  0.96421078  0.64428986  0.27313823    -1.12410
C1216       C  0.85296839  0.55165270  0.24119766     1.05770
O1217       O  0.94962702  0.59104229  0.14774265    -0.79020
O1218       O  0.92303284  0.63233242  0.18490557    -0.66600
Ni1219     Ni  0.99223476  0.65783641  0.32051625     1.34870
C1220       C  0.91340697  0.64433114  0.21403852     0.84500
O1221       O  0.02578868  0.67432478  0.23094907    -0.79560
O1222       O  0.03567328  0.67100996  0.29486164    -0.89830
C1223       C  0.98009328  0.59608504  0.15559636     0.84080
O1224       O  0.97912343  0.60709516  0.32389585    -0.68030
O1225       O  0.86513840  0.56560792  0.20720713    -0.87320
C1226       C  0.98271227  0.58980437  0.29554275     0.84910
C1227       C  0.04658287  0.68336841  0.26023483     1.06480
H1228       H  0.93644649  0.56472506  0.23175191     0.38280
O1229       O  0.93535634  0.58667170  0.22770654    -1.09980
O1230       O  0.90148891  0.62593498  0.24609588    -0.66630
Ni1231     Ni  0.91863289  0.59811341  0.27363315     1.26350
O1232       O  0.99773169  0.60606980  0.26362386    -0.66860
O1233       O  0.87337666  0.55444306  0.26936678    -0.79150
C1234       C  0.92561892  0.61814282  0.35194891     0.84290
O1235       O  0.90367139  0.60683216  0.32366365    -0.66330
Ni1236     Ni  0.90956203  0.58125533  0.18054304     1.27450
Ni1237     Ni  0.98118381  0.63007133  0.22915215     1.26060
H1238       H  0.96230913  0.66524168  0.26592133     0.38830
O1239       O  0.94875874  0.94521231  0.97755593    -0.81120
O1240       O  0.58383468  0.51560230  0.07882212    -0.65810
O1241       O  0.01374504  0.50320870  0.00277146    -1.12410
C1242       C  0.57578037  0.96151861  0.92477980     1.05770
O1243       O  0.62271154  0.54765077  0.03293943    -0.79020
O1244       O  0.60854046  0.55301266  0.95681847    -0.66600
Ni1245     Ni  0.96562341  0.98333875  0.01659114     1.34870
C1246       C  0.58410336  0.55124577  0.93552288     0.84500
O1247       O  0.53099154  0.53252612  0.08066863    -0.79560
O1248       O  0.97877769  0.52069399  0.05600782    -0.89830
C1249       C  0.61579814  0.53388163  0.06723313     0.84080
O1250       O  0.96158761  0.94822882  0.05490877    -0.68030
O1251       O  0.60252987  0.48603203  0.94334185    -0.87320
C1252       C  0.98298430  0.94013149  0.07012976     0.84910
C1253       C  0.00439789  0.53706737  0.08013079     1.06480
H1254       H  0.55844269  0.96477169  0.01323509     0.38280
O1255       O  0.56238256  0.48807158  0.00359922    -1.09980
O1256       O  0.55294050  0.52368228  0.93542603    -0.66630
Ni1257     Ni  0.52715784  0.97837366  0.96517798     1.26350
O1258       O  0.51645253  0.96037535  0.06641203    -0.66860
O1259       O  0.54414342  0.95464898  0.92994705    -0.79150
C1260       C  0.95648045  0.95064374  0.94118657     0.84290
O1261       O  0.98843814  0.96692143  0.92978488    -0.66330
Ni1262     Ni  0.61078031  0.51653698  0.98816781     1.27450
Ni1263     Ni  0.54685889  0.50915887  0.04292749     1.26060
H1264       H  0.52139812  0.52750462  0.99267054     0.38830
C1265       C  0.00217164  0.56201386  0.10790474    -0.13500
C1266       C  0.99475984  0.58030002  0.12908532    -0.15060
C1267       C  0.96701159  0.90604510  0.09290118    -0.13500
C1268       C  0.94624891  0.87892587  0.11181578    -0.15060
C1269       C  0.98088185  0.53509836  0.27130360    -0.13580
C1270       C  0.96616134  0.54980668  0.29611853     0.08570
C1271       C  0.93096665  0.02739757  0.30861422    -0.13580
C1272       C  0.91028487  0.99156768  0.29389450    -0.13580
C1273       C  0.92427944  0.97913113  0.26500455     0.08570
C1274       C  0.95974165  0.00105245  0.25458705    -0.13580
H1275       H  0.00771763  0.55177971  0.26084117     0.12560
H1276       H  0.91842901  0.03848181  0.32641151     0.12560
H1277       H  0.88303107  0.97481077  0.30277796     0.12560
H1278       H  0.97106616  0.99258842  0.23216162     0.12560
C1279       C  0.94601201  0.71178688  0.19607691    -0.13580
C1280       C  0.91691776  0.68089521  0.21335488     0.08570
C1281       C  0.89410531  0.68607305  0.23735242    -0.13580
C1282       C  0.90146687  0.72110991  0.24659817    -0.13580
C1283       C  0.93157186  0.75227184  0.23164113     0.08570
C1284       C  0.95311745  0.74746220  0.20487068    -0.13580
H1285       H  0.96421497  0.70846617  0.17778161     0.12560
H1286       H  0.87130523  0.66286046  0.25076803     0.12560
H1287       H  0.88357552  0.72376109  0.26617143     0.12560
H1288       H  0.97606282  0.77106961  0.19230851     0.12560
C1289       C  0.66641246  0.55147576  0.11925931    -0.13500
C1290       C  0.64476959  0.54086917  0.09296617    -0.15060
C1291       C  0.60715527  0.70837921  0.28506673    -0.13580
C1292       C  0.58464546  0.70304604  0.25312959     0.08570
C1293       C  0.59693739  0.70510865  0.21449332    -0.13580
C1294       C  0.62637314  0.70194962  0.20848738    -0.13580
C1295       C  0.64254608  0.69610055  0.24120314     0.08570
C1296       C  0.63625288  0.70469798  0.27906885    -0.13580
H1297       H  0.59916340  0.70888849  0.31516494     0.12560
H1298       H  0.58085958  0.70279664  0.18918744     0.12560
H1299       H  0.63185122  0.69700589  0.17871115     0.12560
H1300       H  0.64964271  0.70203014  0.30460459     0.12560
C1301       C  0.77186166  0.53490818  0.29558270    -0.13580
C1302       C  0.75088775  0.53490720  0.26418118     0.08570
C1303       C  0.76038228  0.53205649  0.22538031    -0.13580
C1304       C  0.79229680  0.53369472  0.21798234    -0.13580
C1305       C  0.81519228  0.53789571  0.24924478     0.08570
C1306       C  0.80359331  0.53620138  0.28821238    -0.13580
H1307       H  0.76510451  0.53677877  0.32586610     0.12560
H1308       H  0.74486123  0.53202601  0.20053353     0.12560
H1309       H  0.80028665  0.53459882  0.18758776     0.12560
H1310       H  0.82043628  0.53924886  0.31299829     0.12560
C1311       C  0.79269452  0.68826833  0.23779520    -0.13580
C1312       C  0.77370025  0.67672981  0.27339440     0.08570
C1313       C  0.78173727  0.70264549  0.30341345    -0.13580
C1314       C  0.80911727  0.73884754  0.29869186    -0.13580
C1315       C  0.82918031  0.75005756  0.26384163     0.08570
C1316       C  0.82014467  0.72458568  0.23305107    -0.13580
H1317       H  0.78686978  0.66907816  0.21388142     0.12560
H1318       H  0.76724266  0.69487145  0.33093547     0.12560
H1319       H  0.81537914  0.75773718  0.32302378     0.12560
H1320       H  0.83533887  0.73220730  0.20601771     0.12560
C1321       C  0.55762740  0.50188860  0.24581746    -0.13580
C1322       C  0.56569274  0.53126926  0.22010845     0.08570
C1323       C  0.54548681  0.02485364  0.18571304    -0.13580
C1324       C  0.51589687  0.99022892  0.17902764    -0.13580
C1325       C  0.50624655  0.96207037  0.20696963     0.08570
C1326       C  0.52837774  0.96758922  0.23911970    -0.13580
H1327       H  0.57343585  0.50549127  0.27181106     0.12560
H1328       H  0.55186523  0.04677573  0.16478447     0.12560
H1329       H  0.49882487  0.98656773  0.15425612     0.12560
H1330       H  0.02141018  0.94613401  0.26091217     0.12560
C1331       C  0.90411678  0.92992453  0.88977227    -0.13500
C1332       C  0.92796832  0.93809662  0.91297285    -0.15060
C1333       C  0.58301923  0.94018781  0.89759839    -0.13500
C1334       C  0.59147266  0.92289958  0.87668076    -0.15060
C1335       C  0.74909011  0.98035753  0.79317178    -0.13580
C1336       C  0.77069544  0.98182173  0.76191475     0.08570
C1337       C  0.76118942  0.98496801  0.72308522    -0.13580
C1338       C  0.72874680  0.98212842  0.71543542    -0.13580
C1339       C  0.70536964  0.97649121  0.74647846     0.08570
C1340       C  0.71683995  0.97791957  0.78555170    -0.13580
H1341       H  0.75581521  0.97819309  0.82347456     0.12560
H1342       H  0.77719017  0.98611888  0.69834931     0.12560
H1343       H  0.72081389  0.98146855  0.68498718     0.12560
H1344       H  0.69957314  0.97372686  0.81015860     0.12560
C1345       C  0.42402744  0.81183751  0.71080702    -0.13580
C1346       C  0.43569501  0.81277303  0.74964318     0.08570
C1347       C  0.91311272  0.80773444  0.78119615    -0.13580
C1348       C  0.88502764  0.81311231  0.77482169    -0.13580
C1349       C  0.87980451  0.82300553  0.73695673     0.08570
C1350       C  0.89567368  0.81684066  0.70440386    -0.13580
H1351       H  0.44015451  0.81396915  0.68575976     0.12560
H1352       H  0.92062488  0.80638140  0.81138568     0.12560
H1353       H  0.87177372  0.81600829  0.80018626     0.12560
H1354       H  0.89097482  0.82282158  0.67461512     0.12560
C1355       C  0.59895218  0.60365715  0.88269135    -0.13500
C1356       C  0.59243672  0.58133045  0.90873961    -0.15060
C1357       C  0.62091875  0.79274337  0.75093936    -0.13580
C1358       C  0.59287401  0.76116566  0.73360282     0.08570
C1359       C  0.57200378  0.76539198  0.70503903    -0.13580
C1360       C  0.57775591  0.80063855  0.69635833    -0.13580
C1361       C  0.60481413  0.83178753  0.71566157     0.08570
C1362       C  0.62689473  0.82736902  0.74196398    -0.13580
H1363       H  0.63852160  0.79081734  0.77184695     0.12560
H1364       H  0.55074681  0.74157775  0.69056576     0.12560
H1365       H  0.56019006  0.80335181  0.67613388     0.12560
H1366       H  0.64826295  0.85079830  0.75690195     0.12560
C1367       C  0.58892856  0.49068253  0.80490236    -0.13580
C1368       C  0.55763725  0.46729712  0.78408256     0.08570
C1369       C  0.54948725  0.48090578  0.75046452    -0.13580
C1370       C  0.57403639  0.51440355  0.73464030    -0.13580
C1371       C  0.60576326  0.53765423  0.75431503     0.08570
C1372       C  0.61242311  0.52629227  0.79069600    -0.13580
H1373       H  0.59626919  0.98091317  0.83054421     0.12560
H1374       H  0.52563219  0.46394818  0.73367894     0.12560
H1375       H  0.56785457  0.52208873  0.70663523     0.12560
H1376       H  0.63626852  0.54415409  0.80701594     0.12560
C1377       C  0.70450491  0.79331004  0.73037569    -0.13580
C1378       C  0.69804932  0.76708784  0.75981622     0.08570
C1379       C  0.71975325  0.77804350  0.79348400    -0.13580
C1380       C  0.74615014  0.81462954  0.79855176    -0.13580
C1381       C  0.75158280  0.84120569  0.77004549     0.08570
C1382       C  0.73103137  0.83001108  0.73543182    -0.13580
H1383       H  0.68797090  0.78588279  0.70432445     0.12560
H1384       H  0.71550278  0.75856945  0.81674117     0.12560
H1385       H  0.76197974  0.82214383  0.82517501     0.12560
H1386       H  0.73485387  0.84974343  0.71266178     0.12560
C1387       C  0.98002869  0.49275216  0.68392527    -0.13580
C1388       C  0.96088965  0.48670738  0.71905238     0.08570
C1389       C  0.97212932  0.51519254  0.74658931    -0.13580
C1390       C  0.50303025  0.54822346  0.74046096    -0.13580
C1391       C  0.52356695  0.55331622  0.70695038     0.08570
C1392       C  0.01123597  0.52609385  0.67778274    -0.13580
H1393       H  0.97131579  0.47152050  0.66171140     0.12560
H1394       H  0.95739992  0.01182938  0.77335046     0.12560
H1395       H  0.51201049  0.56906724  0.76319879     0.12560
H1396       H  0.02695994  0.52946415  0.65189951     0.12560
C1397       C  0.93191424  0.91069819  0.38585115    -0.13500
C1398       C  0.93639476  0.93349770  0.41038391    -0.15060
C1399       C  0.93768556  0.57479707  0.39740841    -0.13500
C1400       C  0.92880092  0.59270302  0.37775242    -0.15060
C1401       C  0.59633162  0.58102341  0.41506709    -0.13500
C1402       C  0.62049486  0.58913636  0.39253435    -0.15060
C1403       C  0.85599966  0.96479188  0.61546539    -0.13500
C1404       C  0.87741635  0.97348655  0.58924791    -0.15060
C1405       C  0.55465402  0.60897248  0.59315274    -0.13500
C1406       C  0.57581103  0.63639113  0.61139197    -0.15060
C1407       C  0.52074526  0.95187261  0.60422322    -0.13500
C1408       C  0.52763261  0.93243401  0.62432442    -0.15060
loop_ 
_geom_bond_atom_site_label_1 
_geom_bond_atom_site_label_2 
_geom_bond_distance 
_geom_bond_site_symmetry_2 
_ccdc_geom_bond_type 
O1           Ni7   1.917       .  S
O1           C22   1.266       .  A
O2          Ni25   1.938       .  S
O2           C11   1.278       .  A
O3           H26   0.966       .  S
O3         Ni359   1.901       .  S
O3         Ni729   1.911   1_455  S
O3         Ni371   1.932   1_455  S
C4           O21   1.288       .  A
C4           O13   1.272       .  A
C4          C343   1.444       .  S
O5          Ni24   1.900       .  S
O5           C11   1.262       .  A
O6          Ni24   1.916       .  S
O6            C8   1.266       .  A
Ni7          O12   1.908       .  S
Ni7         O362   1.919   1_545  S
Ni7         O355   1.901       .  S
C8           O18   1.271       .  A
C8          C342   1.449       .  S
O9         Ni729   1.959       .  S
O9           C15   1.287   1_655  A
O10        Ni359   1.919       .  S
O10          C15   1.275       .  A
C11         C348   1.447       .  S
O12          C14   1.267       .  A
O13        Ni376   1.912   1_545  S
C14          O20   1.283       .  A
C14         C349   1.462       .  S
C15         C351   1.456       .  S
H16          O17   0.966       .  S
O17        Ni377   1.920       .  S
O17        Ni723   1.902       .  S
O17        Ni376   1.918   1_545  S
O18       Ni1075   1.939       .  S
Ni19         O23   1.936   1_655  S
Ni19       O1074   1.939   1_545  S
Ni19        O725   1.947       .  S
Ni19        O355   1.932   1_655  S
Ni19        O721   1.902       .  S
O20       Ni1081   1.969   1_455  S
O21        Ni723   1.947       .  S
C22          O23   1.276       .  A
C22         C345   1.446       .  S
Ni24        O365   1.912       .  S
Ni24        O369   1.918       .  S
Ni25        O713   1.959       .  S
Ni25       O1076   1.969       .  S
Ni25        O707   1.911       .  S
Ni25        O369   1.920       .  S
O27         Ni33   1.962       .  S
O27          C48   1.279       .  A
O28         Ni51   1.943       .  S
O28          C37   1.272       .  A
O29          H52   0.966       .  S
O29         Ni33   1.886       .  S
O29         Ni51   1.903       .  S
O29         Ni45   1.900       .  S
C30          O47   1.259       .  A
C30          O39   1.266       .  A
C30         C315   1.473       .  S
O31         Ni50   1.897       .  S
O31          C37   1.257       .  A
O32         Ni50   1.917       .  S
O32          C34   1.278       .  A
Ni33         O36   1.930       .  S
Ni33         O38   1.910       .  S
C34          O44   1.278       .  A
C34         C335   1.458       .  S
O35         Ni51   1.920       .  S
O35          C41   1.275       .  A
O36          C41   1.278       .  A
C37         C350   1.464       .  S
O38          C40   1.279       .  A
O39         Ni50   1.917       .  S
C40          O46   1.287       .  A
C40         C322   1.480       .  S
C41         C302   1.482       .  S
H42          O43   0.966       .  S
O43         Ni51   1.965       .  S
O43         Ni45   1.890       .  S
O43         Ni50   1.930       .  S
O44         Ni45   1.914       .  S
Ni45         O49   1.888       .  S
Ni45         O47   1.901       .  S
O46         Ni51   1.957       .  S
C48          O49   1.262       .  A
C48         C299   1.446       .  S
O53         Ni59   1.898       .  S
O53          C74   1.252       .  A
O54         Ni77   1.908       .  S
O54          C63   1.269       .  A
O55          H78   0.965       .  S
O55         Ni59   1.921       .  S
O55         Ni77   1.899       .  S
O55         Ni71   1.964       .  S
C56          O73   1.274       .  A
C56          O65   1.279       .  A
C56         C283   1.485       .  S
O57         Ni76   1.952       .  S
O57          C63   1.280       .  A
O58         Ni76   1.935       .  S
O58          C60   1.282       .  A
Ni59         O62   1.918   1_455  S
Ni59         O64   1.940       .  S
C60          O70   1.281       .  A
C60         C305   1.478       .  S
O61         Ni77   1.903   1_655  S
O61          C67   1.269       .  A
O62          C67   1.275       .  A
C63         C352   1.456       .  S
O64         C418   1.272       .  A
O65         Ni76   1.946       .  S
C66         O416   1.272       .  A
C66         O424   1.268       .  A
C66         C312   1.476       .  S
C67         C290   1.466       .  S
H68          O69   0.963       .  S
O69         Ni77   1.917       .  S
O69         Ni71   1.890       .  S
O69         Ni76   1.898       .  S
O70         Ni71   1.932       .  S
Ni71         O75   1.929       .  S
Ni71         O73   1.913       .  S
O72         Ni77   1.918       .  S
O72         C418   1.268       .  A
C74          O75   1.269       .  A
C74         C278   1.441       .  S
O79         Ni85   1.876       .  S
O79         C100   1.254       .  A
O80        Ni103   1.880       .  S
O80          C89   1.261       .  A
O81         H104   0.964       .  S
O81         Ni85   1.862       .  S
O81        Ni103   1.847       .  S
O81         Ni97   1.905       .  S
C82          O99   1.276       .  A
C82          O91   1.280       .  A
C82         C280   1.485       .  S
O83        Ni102   1.966       .  S
O83          C89   1.283       .  A
O84        Ni102   1.916       .  S
O84          C86   1.283       .  A
Ni85         O88   1.896       .  S
Ni85         O90   1.900       .  S
C86          O96   1.287       .  A
C86         C325   1.481       .  S
O87        Ni103   1.931       .  S
O87          C93   1.287       .  A
O88          C93   1.277       .  A
C89         C275   1.445       .  S
O90          C92   1.259       .  A
O91        Ni102   1.943       .  S
C92          O98   1.261       .  A
C92         C684   1.465       .  S
C93         C293   1.462       .  S
H94          O95   0.967       .  S
O95        Ni103   1.930       .  S
O95         Ni97   1.907       .  S
O95        Ni102   1.884       .  S
O96         Ni97   1.952       .  S
Ni97        O101   1.948       .  S
Ni97         O99   1.913       .  S
O98        Ni103   1.901       .  S
C100        O101   1.285       .  A
C100        C347   1.425       .  S
O105       Ni111   1.874       .  S
O105        C126   1.256       .  A
O106       Ni129   1.876       .  S
O106        C115   1.260       .  A
O107        H130   0.964       .  S
O107       Ni111   1.871       .  S
O107       Ni129   1.854       .  S
O107       Ni123   1.907       .  S
C108        O125   1.276       .  A
C108        O117   1.280       .  A
C108        C246   1.485       .  S
O109       Ni128   1.967       .  S
O109        C115   1.283       .  A
O110       Ni128   1.915       .  S
O110        C112   1.283       .  A
Ni111       O114   1.897       .  S
Ni111       O116   1.906       .  S
C112        O122   1.287       .  A
C112        C256   1.480       .  S
O113       Ni129   1.928       .  S
O113        C119   1.285       .  A
O114        C119   1.274       .  A
C115        C346   1.444       .  S
O116        C118   1.262       .  A
O117       Ni128   1.943       .  S
C118        O124   1.260       .  A
C118        C266   1.467       .  S
C119        C239   1.463       .  S
H120        O121   0.967       .  S
O121       Ni129   1.928       .  S
O121       Ni123   1.905       .  S
O121       Ni128   1.883       .  S
O122       Ni123   1.951       .  S
Ni123       O127   1.945       .  S
Ni123       O125   1.914       .  S
O124       Ni129   1.893       .  S
C126        O127   1.285       .  A
C126        C233   1.425       .  S
O131       Ni137   1.970       .  S
O131        C152   1.281       .  A
O132       Ni155   1.945       .  S
O132        C141   1.273       .  A
O133        H156   0.966       .  S
O133       Ni137   1.887       .  S
O133       Ni155   1.904       .  S
O133       Ni149   1.894       .  S
C134        O151   1.256       .  A
C134        O143   1.267       .  A
C134        C217   1.465       .  S
O135       Ni154   1.898       .  S
O135        C141   1.259       .  A
O136       Ni154   1.909       .  S
O136        C138   1.274       .  A
Ni137       O140   1.936       .  S
Ni137       O142   1.909       .  S
C138        O148   1.281       .  A
C138        C973   1.459       .  S
O139       Ni155   1.919       .  S
O139        C145   1.276       .  A
O140        C145   1.280       .  A
C141        C212   1.461       .  S
O142        C144   1.278       .  A
O143       Ni154   1.927       .  S
C144        O150   1.286       .  A
C144        C259   1.479       .  S
C145        C227   1.479       .  S
H146        O147   0.966       .  S
O147       Ni155   1.959       .  S
O147       Ni149   1.880       .  S
O147       Ni154   1.926       .  S
O148       Ni149   1.923       .  S
Ni149       O153   1.880       .  S
Ni149       O151   1.901       .  S
O150       Ni155   1.955       .  S
C152        O153   1.259       .  A
C152        C341   1.446       .  S
O157       Ni163   1.905       .  S
O157        C178   1.255       .  A
O158       Ni181   1.916       .  S
O158        C167   1.271       .  A
O159        H182   0.965       .  S
O159       Ni163   1.924       .  S
O159       Ni181   1.903       .  S
O159       Ni175   1.964       .  S
C160        O177   1.274       .  A
C160        O169   1.279       .  A
C160        C249   1.487       .  S
O161       Ni180   1.950       .  S
O161        C167   1.279       .  A
O162       Ni180   1.936       .  S
O162        C164   1.281       .  A
Ni163       O166   1.915       .  S
Ni163       O168   1.923       .  S
C164        O174   1.280       .  A
C164        C224   1.477       .  S
O165       Ni181   1.904       .  S
O165        C171   1.269       .  A
O166        C171   1.273       .  A
C167        C210   1.459       .  S
O168        C170   1.269       .  A
O169       Ni180   1.947       .  S
C170        O176   1.270       .  A
C170        C214   1.463       .  S
C171        C940   1.467       .  S
H172        O173   0.965       .  S
O173       Ni181   1.918       .  S
O173       Ni175   1.892       .  S
O173       Ni180   1.903       .  S
O174       Ni175   1.933       .  S
Ni175       O179   1.925       .  S
Ni175       O177   1.913       .  S
O176       Ni181   1.918       .  S
C178        O179   1.268       .  A
C178        C344   1.446       .  S
O183       Ni189   1.921   1_556  S
O183        C204   1.267       .  A
O184       Ni207   1.938       .  S
O184        C193   1.278       .  A
O185        H912   0.966   1_554  S
O185       Ni541   1.905   1_545  S
O185       Ni911   1.915       .  S
O185      Ni1257   1.933   1_544  S
C186        O203   1.288       .  A
C186        O547   1.271       .  A
C186        C277   1.440       .  S
O187       Ni206   1.901   1_554  S
O187        C193   1.263       .  A
O188       Ni206   1.915       .  S
O188        C190   1.267       .  A
Ni189       O194   1.908       .  S
Ni189       O544   1.922       .  S
Ni189       O537   1.905       .  S
C190        O200   1.271       .  A
C190        C300   1.447       .  S
O191       Ni207   1.959       .  S
O191        C901   1.286       .  A
O192       Ni541   1.922   1_545  S
O192        C197   1.275       .  A
C193        C234   1.447       .  S
O194        C196   1.268       .  A
O195       Ni206   1.907   1_565  S
O195        C538   1.271       .  A
C196        O906   1.282       .  A
C196        C211   1.460       .  S
C197        O895   1.286       .  A
C197        C209   1.459       .  S
H198        O551   0.966       .  S
O199        H550   0.966       .  S
O199       Ni207   1.921   1_565  S
O199       Ni206   1.916   1_564  S
O199       Ni553   1.903   1_554  S
O200       Ni553   1.937   1_545  S
Ni201       O203   1.947       .  S
Ni201       O552   1.937       .  S
Ni201       O909   1.934   1_455  S
Ni201      O1241   1.933   1_556  S
Ni201       O551   1.903   1_556  S
O202       Ni559   1.966       .  S
O202        C900   1.282   1_455  A
C204        O205   1.275       .  A
C204        C276   1.447       .  S
O205       Ni905   1.934       .  S
Ni207       O554   1.966   1_545  S
Ni207       O889   1.915       .  S
H208        O889   0.966   1_556  S
C209        C210   1.220       .  T
C211        C212   1.221       .  T
C213        C214   1.394       .  A
C213        C570   1.378       .  A
C213        H219   1.085       .  S
C214        C567   1.412       .  A
C215        C216   1.405       .  A
C215        C566   1.412       .  A
C215        H220   1.079       .  S
C216        C217   1.400       .  A
C216        H221   1.083       .  S
C217        C218   1.399       .  A
C218        C565   1.378       .  A
C218        H222   1.070       .  S
C223        C224   1.409       .  A
C223        C228   1.411       .  A
C223        H229   1.083       .  S
C224        C225   1.400       .  A
C225        C226   1.385       .  A
C225        H230   1.084       .  S
C226        C227   1.405       .  A
C226        H231   1.083       .  S
C227        C228   1.407       .  A
C228        H232   1.083       .  S
C233        C234   1.211       .  T
C235        C236   1.405       .  A
C235        C240   1.390       .  A
C235        H241   1.083       .  S
C236        C875   1.467       .  S
C236        C237   1.403       .  A
C237        C238   1.391       .  A
C237        H242   1.083       .  S
C238        C239   1.404       .  A
C238        H243   1.083       .  S
C239        C240   1.401       .  A
C240        H244   1.084       .  S
C245        C246   1.408       .  A
C245        C250   1.400       .  A
C245        H251   1.083       .  S
C246        C247   1.405       .  A
C247        C248   1.401       .  A
C247        H252   1.083       .  S
C248        C249   1.409       .  A
C248        H253   1.083       .  S
C249        C250   1.405       .  A
C250        H254   1.083       .  S
C255        C256   1.407       .  A
C255        C260   1.399       .  A
C255        H261   1.083       .  S
C256        C257   1.404       .  A
C257        C258   1.394       .  A
C257        H262   1.083       .  S
C258        C259   1.406       .  A
C258        H263   1.083       .  S
C259        C260   1.406       .  A
C260        H264   1.083       .  S
C265        C266   1.405       .  A
C265        C622   1.383   1_545  A
C265        H271   1.083       .  S
C266        C619   1.405       .  A
C267        C268   1.397       .  A
C267        C618   1.405       .  A
C267        H272   1.083       .  S
C268        C269   1.405       .  A
C268        H273   1.083   1_455  S
C269        C842   1.459   1_455  S
C269        C270   1.399       .  A
C270        C617   1.383       .  A
C270        H978   1.084       .  S
H274        C974   1.084       .  S
C275        C276   1.213       .  T
C277        C278   1.211       .  T
C279        C280   1.408       .  A
C279        C284   1.400       .  A
C279        H285   1.083       .  S
C280        C281   1.405       .  A
C281        C282   1.401       .  A
C281        H286   1.083       .  S
C282        C283   1.408       .  A
C282        H287   1.083       .  S
C283        C284   1.405       .  A
C284        H288   1.083       .  S
C289        C290   1.403       .  A
C289        C998   1.391       .  A
C289        H295   1.083       .  S
C290        C995   1.404       .  A
C291        C292   1.389       .  A
C291        C994   1.404       .  A
C291        H296   1.083       .  S
C292        C293   1.401       .  A
C292        H297   1.084       .  S
C293        C294   1.404       .  A
C294        C993   1.391       .  A
C294        H298   1.083       .  S
C299        C300   1.213       .  T
C301        C302   1.406       .  A
C301        C306   1.384       .  A
C301        H307   1.084       .  S
C302        C303   1.407       .  A
C303        C304   1.411       .  A
C303        H308   1.083       .  S
C304        C305   1.409       .  A
C304        H309   1.083       .  S
C305        C306   1.400       .  A
C306        H310   1.084       .  S
C311        C312   1.410       .  A
C311        C316   1.408   1_565  A
C311        H669   1.078       .  S
C312        C313   1.400       .  A
C313        C314   1.379   1_565  A
C313        H318   1.084       .  S
C314        C315   1.402       .  A
C314        H319   1.080       .  S
C315        C316   1.404       .  A
C316        H320   1.083       .  S
H317        C663   1.078       .  S
C321        C322   1.406       .  A
C321        C326   1.399       .  A
C321        H327   1.083       .  S
C322        C323   1.405       .  A
C323        C324   1.395       .  A
C323        H328   1.083       .  S
C324        C325   1.405       .  A
C324        H329   1.083       .  S
C325        C326   1.407       .  A
C326        H330   1.083       .  S
C331        C332   1.407       .  A
C331        C336   1.396   1_565  A
C331        H337   1.083       .  S
C332        C444   1.465       .  S
C332        C333   1.402   1_565  A
C333       C1038   1.383       .  A
C333        H690   1.083       .  S
C334        C335   1.401       .  A
C334       C1037   1.383   1_455  A
C334        H339   1.084       .  S
C335       C1040   1.402       .  A
C336       C1039   1.402       .  A
C336        H340   1.083       .  S
H338        C685   1.083       .  S
C341        C342   1.213       .  T
C343        C344   1.213       .  T
C345        C346   1.212       .  T
C347        C348   1.211       .  T
C349        C350   1.223       .  T
C351        C352   1.219       .  T
O353       Ni359   1.917       .  S
O353        C374   1.266       .  A
O354       Ni377   1.938   1_565  S
O354        C363   1.278       .  A
O355        H378   0.966   1_545  S
O355      Ni1081   1.911   1_455  S
C356        O373   1.288       .  A
C356        O365   1.272       .  A
C356        C695   1.444       .  S
O357       Ni376   1.900       .  S
O357        C363   1.262       .  A
O358       Ni376   1.916       .  S
O358        C360   1.266       .  A
Ni359       O364   1.908       .  S
C360        O370   1.271       .  A
C360        C694   1.449       .  S
O361      Ni1081   1.959   1_565  S
O361        C367   1.287   1_655  A
O362        C367   1.275       .  A
C363        C700   1.447       .  S
O364        C366   1.267       .  A
C366        O372   1.283       .  A
C366        C701   1.462       .  S
C367        C703   1.456       .  S
H368        O369   0.966       .  S
O369      Ni1075   1.902       .  S
O370       Ni723   1.939   1_565  S
Ni371       O722   1.939       .  S
Ni371       O375   1.936   1_655  S
Ni371      O1077   1.947       .  S
Ni371      O1073   1.902       .  S
O372       Ni729   1.969   1_455  S
O373      Ni1075   1.947       .  S
C374        O375   1.276       .  A
C374        C697   1.446       .  S
Ni377      O1065   1.959   1_545  S
Ni377       O724   1.969       .  S
Ni377      O1059   1.911       .  S
O379       Ni385   1.962       .  S
O379        C400   1.279       .  A
O380       Ni403   1.943       .  S
O380        C389   1.272       .  A
O381        H404   0.966       .  S
O381       Ni385   1.886       .  S
O381       Ni403   1.903       .  S
O381       Ni397   1.900       .  S
C382        O399   1.259       .  A
C382        O391   1.266       .  A
C382        C667   1.473       .  S
O383       Ni402   1.897       .  S
O383        C389   1.257       .  A
O384       Ni402   1.917       .  S
O384        C386   1.278       .  A
Ni385       O388   1.930       .  S
Ni385       O390   1.910       .  S
C386        O396   1.278       .  A
C386        C687   1.458       .  S
O387       Ni403   1.920       .  S
O387        C393   1.275       .  A
O388        C393   1.278       .  A
C389        C702   1.464       .  S
O390        C392   1.279       .  A
O391       Ni402   1.917       .  S
C392        O398   1.287       .  A
C392        C674   1.480       .  S
C393        C654   1.482       .  S
H394        O395   0.966       .  S
O395       Ni403   1.965       .  S
O395       Ni397   1.890       .  S
O395       Ni402   1.930       .  S
O396       Ni397   1.914       .  S
Ni397       O401   1.888       .  S
Ni397       O399   1.901       .  S
O398       Ni403   1.957       .  S
C400        O401   1.262       .  A
C400        C651   1.446       .  S
O405       Ni411   1.898       .  S
O405        C426   1.252       .  A
O406       Ni429   1.908       .  S
O406        C415   1.269       .  A
O407        H430   0.965       .  S
O407       Ni411   1.921       .  S
O407       Ni429   1.899       .  S
O407       Ni423   1.964       .  S
C408        O425   1.274       .  A
C408        O417   1.279       .  A
C408        C635   1.485       .  S
O409       Ni428   1.952       .  S
O409        C415   1.280       .  A
O410       Ni428   1.935       .  S
O410        C412   1.282       .  A
Ni411       O414   1.918   1_455  S
Ni411       O416   1.940       .  S
C412        O422   1.281       .  A
C412        C657   1.478       .  S
O413       Ni429   1.903   1_655  S
O413        C419   1.269       .  A
O414        C419   1.275       .  A
C415        C704   1.456       .  S
O417       Ni428   1.946       .  S
C418        C664   1.476       .  S
C419        C642   1.466       .  S
H420        O421   0.963       .  S
O421       Ni429   1.917       .  S
O421       Ni423   1.890       .  S
O421       Ni428   1.898       .  S
O422       Ni423   1.932       .  S
Ni423       O427   1.929       .  S
Ni423       O425   1.913       .  S
O424       Ni429   1.918       .  S
C426        O427   1.269       .  A
C426        C630   1.441       .  S
O431       Ni437   1.876       .  S
O431        C452   1.254       .  A
O432       Ni455   1.880       .  S
O432        C441   1.261       .  A
O433        H456   0.964       .  S
O433       Ni437   1.862       .  S
O433       Ni455   1.847       .  S
O433       Ni449   1.905       .  S
C434        O451   1.276       .  A
C434        O443   1.280       .  A
C434        C632   1.485       .  S
O435       Ni454   1.966       .  S
O435        C441   1.283       .  A
O436       Ni454   1.916       .  S
O436        C438   1.283       .  A
Ni437       O440   1.896       .  S
Ni437       O442   1.900       .  S
C438        O448   1.287       .  A
C438        C677   1.481       .  S
O439       Ni455   1.931       .  S
O439        C445   1.287       .  A
O440        C445   1.277       .  A
C441        C627   1.445       .  S
O442        C444   1.259       .  A
O443       Ni454   1.943       .  S
C444        O450   1.261       .  A
C445        C645   1.462       .  S
H446        O447   0.967       .  S
O447       Ni455   1.930       .  S
O447       Ni449   1.907       .  S
O447       Ni454   1.884       .  S
O448       Ni449   1.952       .  S
Ni449       O453   1.948       .  S
Ni449       O451   1.913       .  S
O450       Ni455   1.901       .  S
C452        O453   1.285       .  A
C452        C699   1.425       .  S
O457       Ni463   1.874       .  S
O457        C478   1.256       .  A
O458       Ni481   1.876       .  S
O458        C467   1.260       .  A
O459        H482   0.964       .  S
O459       Ni463   1.871       .  S
O459       Ni481   1.854       .  S
O459       Ni475   1.907       .  S
C460        O477   1.276       .  A
C460        O469   1.280       .  A
C460        C598   1.485       .  S
O461       Ni480   1.967       .  S
O461        C467   1.283       .  A
O462       Ni480   1.915       .  S
O462        C464   1.283       .  A
Ni463       O466   1.897       .  S
Ni463       O468   1.906       .  S
C464        O474   1.287       .  A
C464        C608   1.480       .  S
O465       Ni481   1.928       .  S
O465        C471   1.285       .  A
O466        C471   1.274       .  A
C467        C698   1.444       .  S
O468        C470   1.262       .  A
O469       Ni480   1.943       .  S
C470        O476   1.260       .  A
C470        C618   1.467       .  S
C471        C591   1.463       .  S
H472        O473   0.967       .  S
O473       Ni481   1.928       .  S
O473       Ni475   1.905       .  S
O473       Ni480   1.883       .  S
O474       Ni475   1.951       .  S
Ni475       O479   1.945       .  S
Ni475       O477   1.914       .  S
O476       Ni481   1.893       .  S
C478        O479   1.285       .  A
C478        C585   1.425       .  S
O483       Ni489   1.970       .  S
O483        C504   1.281       .  A
O484       Ni507   1.945       .  S
O484        C493   1.273       .  A
O485        H508   0.966       .  S
O485       Ni489   1.887       .  S
O485       Ni507   1.904       .  S
O485       Ni501   1.894       .  S
C486        O503   1.256       .  A
C486        O495   1.267       .  A
C486        C569   1.465       .  S
O487       Ni506   1.898       .  S
O487        C493   1.259       .  A
O488       Ni506   1.909       .  S
O488        C490   1.274       .  A
Ni489       O492   1.936       .  S
Ni489       O494   1.909       .  S
C490        O500   1.281       .  A
C490       C1325   1.459       .  S
O491       Ni507   1.919       .  S
O491        C497   1.276       .  A
O492        C497   1.280       .  A
C493        C564   1.461       .  S
O494        C496   1.278       .  A
O495       Ni506   1.927       .  S
C496        O502   1.286       .  A
C496        C611   1.479       .  S
C497        C579   1.479       .  S
H498        O499   0.966       .  S
O499       Ni507   1.959       .  S
O499       Ni501   1.880       .  S
O499       Ni506   1.926       .  S
O500       Ni501   1.923       .  S
Ni501       O505   1.880       .  S
Ni501       O503   1.901       .  S
O502       Ni507   1.955       .  S
C504        O505   1.259       .  A
C504        C693   1.446       .  S
O509       Ni515   1.905       .  S
O509        C530   1.255       .  A
O510       Ni533   1.916       .  S
O510        C519   1.271       .  A
O511        H534   0.965       .  S
O511       Ni515   1.924       .  S
O511       Ni533   1.903       .  S
O511       Ni527   1.964       .  S
C512        O529   1.274       .  A
C512        O521   1.279       .  A
C512        C601   1.487       .  S
O513       Ni532   1.950       .  S
O513        C519   1.279       .  A
O514       Ni532   1.936       .  S
O514        C516   1.281       .  A
Ni515       O518   1.915       .  S
Ni515       O520   1.923       .  S
C516        O526   1.280       .  A
C516        C576   1.477       .  S
O517       Ni533   1.904       .  S
O517        C523   1.269       .  A
O518        C523   1.273       .  A
C519        C562   1.459       .  S
O520        C522   1.269       .  A
O521       Ni532   1.947       .  S
C522        O528   1.270       .  A
C522        C566   1.463       .  S
C523       C1292   1.467       .  S
H524        O525   0.965       .  S
O525       Ni533   1.918       .  S
O525       Ni527   1.892       .  S
O525       Ni532   1.903       .  S
O526       Ni527   1.933       .  S
Ni527       O531   1.925       .  S
Ni527       O529   1.913       .  S
O528       Ni533   1.918       .  S
C530        O531   1.268       .  A
C530        C696   1.446       .  S
O535       Ni541   1.921   1_556  S
O535        C556   1.267       .  A
O536       Ni559   1.938       .  S
O536        C545   1.278       .  A
O537       H1264   0.966   1_554  S
O537      Ni1263   1.915       .  S
O537       Ni905   1.933   1_554  S
C538        O555   1.288       .  A
C538        C629   1.440       .  S
O539       Ni558   1.901   1_554  S
O539        C545   1.263       .  A
O540       Ni558   1.915       .  S
O540        C542   1.267       .  A
Ni541       O546   1.908       .  S
C542        O552   1.271       .  A
C542        C652   1.447       .  S
O543       Ni559   1.959       .  S
O543       C1253   1.286       .  A
O544        C549   1.275       .  A
C545        C586   1.447       .  S
O546        C548   1.268       .  A
O547       Ni558   1.907       .  S
C548       O1258   1.282       .  A
C548        C563   1.460       .  S
C549       O1247   1.286       .  A
C549        C561   1.459       .  S
O551       Ni559   1.921       .  S
O551       Ni558   1.916   1_554  S
Ni553      O1261   1.934   1_455  S
Ni553       O555   1.947       .  S
Ni553       O889   1.933   1_566  S
O554       C1252   1.282   1_455  A
C556        O557   1.275       .  A
C556        C628   1.447       .  S
O557      Ni1257   1.934       .  S
Ni559      O1241   1.915       .  S
H560       O1241   0.966   1_556  S
C561        C562   1.220       .  T
C563        C564   1.221       .  T
C565        C566   1.394       .  A
C565        H571   1.085       .  S
C567        C568   1.405   1_545  A
C567        H572   1.079       .  S
C568        C569   1.400       .  A
C568        H573   1.083       .  S
C569        C570   1.399   1_565  A
C570        H574   1.070   1_545  S
C575        C576   1.409       .  A
C575        C580   1.411       .  A
C575        H581   1.083       .  S
C576        C577   1.400       .  A
C577        C578   1.385       .  A
C577        H582   1.084       .  S
C578        C579   1.405       .  A
C578        H583   1.083       .  S
C579        C580   1.407       .  A
C580        H584   1.083       .  S
C585        C586   1.211       .  T
C587        C588   1.405       .  A
C587        C592   1.390       .  A
C587        H593   1.083       .  S
C588       C1227   1.467       .  S
C588        C589   1.403       .  A
C589        C590   1.391       .  A
C589        H594   1.083       .  S
C590        C591   1.404       .  A
C590        H595   1.083       .  S
C591        C592   1.401       .  A
C592        H596   1.084       .  S
C597        C598   1.408       .  A
C597        C602   1.400       .  A
C597        H603   1.083       .  S
C598        C599   1.405       .  A
C599        C600   1.401       .  A
C599        H604   1.083       .  S
C600        C601   1.409       .  A
C600        H605   1.083       .  S
C601        C602   1.405       .  A
C602        H606   1.083       .  S
C607        C608   1.407       .  A
C607        C612   1.399       .  A
C607        H613   1.083       .  S
C608        C609   1.404       .  A
C609        C610   1.394       .  A
C609        H614   1.083       .  S
C610        C611   1.406       .  A
C610        H615   1.083       .  S
C611        C612   1.406       .  A
C612        H616   1.083       .  S
C617        C618   1.405       .  A
C617        H623   1.083       .  S
C619        C620   1.397   1_545  A
C619        H624   1.083       .  S
C620        C621   1.405       .  A
C620        H625   1.083   1_455  S
C621       C1194   1.459   1_455  S
C621        C622   1.399       .  A
C622       H1330   1.084       .  S
H626       C1326   1.084       .  S
C627        C628   1.213       .  T
C629        C630   1.211       .  T
C631        C632   1.408       .  A
C631        C636   1.400       .  A
C631        H637   1.083       .  S
C632        C633   1.405       .  A
C633        C634   1.401       .  A
C633        H638   1.083       .  S
C634        C635   1.408       .  A
C634        H639   1.083       .  S
C635        C636   1.405       .  A
C636        H640   1.083       .  S
C641        C642   1.403       .  A
C641       C1350   1.391       .  A
C641        H647   1.083       .  S
C642       C1347   1.404       .  A
C643       C1346   1.404       .  A
C643        C644   1.389       .  A
C643        H648   1.083       .  S
C644        C645   1.401       .  A
C644        H649   1.084       .  S
C645        C646   1.404       .  A
C646       C1345   1.391       .  A
C646        H650   1.083       .  S
C651        C652   1.213       .  T
C653        C654   1.406       .  A
C653        C658   1.384       .  A
C653        H659   1.084       .  S
C654        C655   1.407       .  A
C655        C656   1.411       .  A
C655        H660   1.083       .  S
C656        C657   1.409       .  A
C656        H661   1.083       .  S
C657        C658   1.400       .  A
C658        H662   1.084       .  S
C663        C664   1.410       .  A
C663        C668   1.408       .  A
C664        C665   1.400       .  A
C665        C666   1.379       .  A
C665        H670   1.084       .  S
C666        C667   1.402       .  A
C666        H671   1.080       .  S
C667        C668   1.404       .  A
C668        H672   1.083       .  S
C673        C674   1.406       .  A
C673        C678   1.399       .  A
C673        H679   1.083       .  S
C674        C675   1.405       .  A
C675        C676   1.395       .  A
C675        H680   1.083       .  S
C676        C677   1.405       .  A
C676        H681   1.083       .  S
C677        C678   1.407       .  A
C678        H682   1.083       .  S
C683        C684   1.407       .  A
C683        C688   1.396       .  A
C683        H689   1.083       .  S
C684        C685   1.402       .  A
C685       C1390   1.383       .  A
C686       C1389   1.383   1_455  A
C686        C687   1.401       .  A
C686        H691   1.084       .  S
C687       C1392   1.402       .  A
C688       C1391   1.402       .  A
C688        H692   1.083       .  S
C693        C694   1.213       .  T
C695        C696   1.213       .  T
C697        C698   1.212       .  T
C699        C700   1.211       .  T
C701        C702   1.223       .  T
C703        C704   1.219       .  T
O705       Ni711   1.917       .  S
O705        C726   1.266       .  A
O706       Ni729   1.938       .  S
O706        C715   1.278       .  A
O707        H730   0.966       .  S
O707      Ni1063   1.901       .  S
O707      Ni1075   1.932       .  S
C708        O725   1.288       .  A
C708        O717   1.272       .  A
C708       C1047   1.444       .  S
O709       Ni728   1.900       .  S
O709        C715   1.262       .  A
O710       Ni728   1.916       .  S
O710        C712   1.266       .  A
Ni711      O1066   1.919   1_545  S
Ni711       O716   1.908       .  S
Ni711      O1059   1.901       .  S
C712        O722   1.271       .  A
C712       C1046   1.449       .  S
O713        C719   1.287       .  A
O714      Ni1063   1.919       .  S
O714        C719   1.275       .  A
C715       C1052   1.447       .  S
O716        C718   1.267       .  A
O717      Ni1080   1.912   1_545  S
C718        O724   1.283       .  A
C718       C1053   1.462       .  S
C719       C1055   1.456       .  S
H720        O721   0.966       .  S
O721      Ni1081   1.920       .  S
O721      Ni1080   1.918   1_545  S
Ni723       O727   1.936       .  S
Ni723      O1059   1.932       .  S
C726        O727   1.276       .  A
C726       C1049   1.446       .  S
Ni728      O1069   1.912       .  S
Ni728      O1073   1.918       .  S
Ni729      O1073   1.920       .  S
O731       Ni737   1.962       .  S
O731        C752   1.279       .  A
O732       Ni755   1.943       .  S
O732        C741   1.272       .  A
O733        H756   0.966       .  S
O733       Ni737   1.886       .  S
O733       Ni755   1.903       .  S
O733       Ni749   1.900       .  S
C734        O751   1.259       .  A
C734        O743   1.266       .  A
C734       C1019   1.473       .  S
O735       Ni754   1.897       .  S
O735        C741   1.257       .  A
O736       Ni754   1.917       .  S
O736        C738   1.278       .  A
Ni737       O740   1.930       .  S
Ni737       O742   1.910       .  S
C738        O748   1.278       .  A
C738       C1039   1.458       .  S
O739       Ni755   1.920       .  S
O739        C745   1.275       .  A
O740        C745   1.278       .  A
C741       C1054   1.464       .  S
O742        C744   1.279       .  A
O743       Ni754   1.917       .  S
C744        O750   1.287       .  A
C744       C1026   1.480       .  S
C745       C1006   1.482       .  S
H746        O747   0.966       .  S
O747       Ni755   1.965       .  S
O747       Ni749   1.890       .  S
O747       Ni754   1.930       .  S
O748       Ni749   1.914       .  S
Ni749       O753   1.888       .  S
Ni749       O751   1.901       .  S
O750       Ni755   1.957       .  S
C752        O753   1.262       .  A
C752       C1003   1.446       .  S
O757       Ni763   1.898       .  S
O757        C778   1.252       .  A
O758       Ni781   1.908       .  S
O758        C767   1.269       .  A
O759        H782   0.965       .  S
O759       Ni763   1.921       .  S
O759       Ni781   1.899       .  S
O759       Ni775   1.964       .  S
C760        O777   1.274       .  A
C760        O769   1.279       .  A
C760        C987   1.485       .  S
O761       Ni780   1.952       .  S
O761        C767   1.280       .  A
O762       Ni780   1.935       .  S
O762        C764   1.282       .  A
Ni763       O766   1.918       .  S
Ni763       O768   1.940       .  S
C764        O774   1.281       .  A
C764       C1009   1.478       .  S
O765       Ni781   1.903       .  S
O765        C771   1.269       .  A
O766        C771   1.275       .  A
C767       C1056   1.456       .  S
O768       C1122   1.272       .  A
O769       Ni780   1.946       .  S
C770       O1120   1.272       .  A
C770       O1128   1.268       .  A
C770       C1016   1.476       .  S
C771        C994   1.466       .  S
H772        O773   0.963       .  S
O773       Ni781   1.917       .  S
O773       Ni775   1.890       .  S
O773       Ni780   1.898       .  S
O774       Ni775   1.932       .  S
Ni775       O779   1.929       .  S
Ni775       O777   1.913       .  S
O776       Ni781   1.918       .  S
O776       C1122   1.268       .  A
C778        O779   1.269       .  A
C778        C982   1.441       .  S
O783       Ni789   1.876       .  S
O783        C804   1.254       .  A
O784       Ni807   1.880       .  S
O784        C793   1.261       .  A
O785        H808   0.964       .  S
O785       Ni789   1.862       .  S
O785       Ni807   1.847       .  S
O785       Ni801   1.905       .  S
C786        O803   1.276       .  A
C786        O795   1.280       .  A
C786        C984   1.485       .  S
O787       Ni806   1.966       .  S
O787        C793   1.283       .  A
O788       Ni806   1.916       .  S
O788        C790   1.283       .  A
Ni789       O792   1.896       .  S
Ni789       O794   1.900       .  S
C790        O800   1.287       .  A
C790       C1029   1.481       .  S
O791       Ni807   1.931       .  S
O791        C797   1.287       .  A
O792        C797   1.277       .  A
C793        C979   1.445       .  S
O794        C796   1.259       .  A
O795       Ni806   1.943       .  S
C796        O802   1.261       .  A
C796       C1388   1.465       .  S
C797        C997   1.462       .  S
H798        O799   0.967       .  S
O799       Ni807   1.930       .  S
O799       Ni801   1.907       .  S
O799       Ni806   1.884       .  S
O800       Ni801   1.952       .  S
Ni801       O805   1.948       .  S
Ni801       O803   1.913       .  S
O802       Ni807   1.901       .  S
C804        O805   1.285       .  A
C804       C1051   1.425       .  S
O809       Ni815   1.874       .  S
O809        C830   1.256       .  A
O810       Ni833   1.876       .  S
O810        C819   1.260       .  A
O811        H834   0.964       .  S
O811       Ni815   1.871       .  S
O811       Ni833   1.854       .  S
O811       Ni827   1.907       .  S
C812        O829   1.276       .  A
C812        O821   1.280       .  A
C812        C950   1.485       .  S
O813       Ni832   1.967       .  S
O813        C819   1.283       .  A
O814       Ni832   1.915       .  S
O814        C816   1.283       .  A
Ni815       O818   1.897       .  S
Ni815       O820   1.906       .  S
C816        O826   1.287       .  A
C816        C960   1.480       .  S
O817       Ni833   1.928       .  S
O817        C823   1.285       .  A
O818        C823   1.274       .  A
C819       C1050   1.444       .  S
O820        C822   1.262       .  A
O821       Ni832   1.943       .  S
C822        O828   1.260       .  A
C822        C970   1.467       .  S
C823        C943   1.463       .  S
H824        O825   0.967       .  S
O825       Ni833   1.928       .  S
O825       Ni827   1.905       .  S
O825       Ni832   1.883       .  S
O826       Ni827   1.951       .  S
Ni827       O831   1.945       .  S
Ni827       O829   1.914       .  S
O828       Ni833   1.893       .  S
C830        O831   1.285       .  A
C830        C937   1.425       .  S
O835       Ni841   1.970       .  S
O835        C856   1.281       .  A
O836       Ni859   1.945       .  S
O836        C845   1.273       .  A
O837        H860   0.966       .  S
O837       Ni841   1.887       .  S
O837       Ni859   1.904       .  S
O837       Ni853   1.894       .  S
C838        O855   1.256       .  A
C838        O847   1.267       .  A
C838        C921   1.465       .  S
O839       Ni858   1.898       .  S
O839        C845   1.259       .  A
O840       Ni858   1.909       .  S
O840        C842   1.274       .  A
Ni841       O844   1.936       .  S
Ni841       O846   1.909       .  S
C842        O852   1.281       .  A
O843       Ni859   1.919       .  S
O843        C849   1.276       .  A
O844        C849   1.280       .  A
C845        C916   1.461       .  S
O846        C848   1.278       .  A
O847       Ni858   1.927       .  S
C848        O854   1.286       .  A
C848        C963   1.479       .  S
C849        C931   1.479       .  S
H850        O851   0.966       .  S
O851       Ni859   1.959       .  S
O851       Ni853   1.880       .  S
O851       Ni858   1.926       .  S
O852       Ni853   1.923       .  S
Ni853       O857   1.880       .  S
Ni853       O855   1.901       .  S
O854       Ni859   1.955       .  S
C856        O857   1.259       .  A
C856       C1045   1.446       .  S
O861       Ni867   1.905       .  S
O861        C882   1.255       .  A
O862       Ni885   1.916       .  S
O862        C871   1.271       .  A
O863        H886   0.965       .  S
O863       Ni867   1.924       .  S
O863       Ni885   1.903       .  S
O863       Ni879   1.964       .  S
C864        O881   1.274       .  A
C864        O873   1.279       .  A
C864        C953   1.487       .  S
O865       Ni884   1.950       .  S
O865        C871   1.279       .  A
O866       Ni884   1.936       .  S
O866        C868   1.281       .  A
Ni867       O870   1.915   1_655  S
Ni867       O872   1.923       .  S
C868        O878   1.280       .  A
C868        C928   1.477       .  S
O869       Ni885   1.904   1_455  S
O869        C875   1.269       .  A
O870        C875   1.273       .  A
C871        C914   1.459       .  S
O872        C874   1.269       .  A
O873       Ni884   1.947       .  S
C874        O880   1.270       .  A
C874        C918   1.463       .  S
H876        O877   0.965       .  S
O877       Ni885   1.918       .  S
O877       Ni879   1.892       .  S
O877       Ni884   1.903       .  S
O878       Ni879   1.933       .  S
Ni879       O883   1.925       .  S
Ni879       O881   1.913       .  S
O880       Ni885   1.918       .  S
C882        O883   1.268       .  A
C882       C1048   1.446       .  S
O887       Ni893   1.921   1_556  S
O887        C908   1.267       .  A
O888       Ni911   1.938       .  S
O888        C897   1.278       .  A
O889      Ni1245   1.905   1_445  S
C890        O907   1.288       .  A
C890       O1251   1.271       .  A
C890        C981   1.440       .  S
O891       Ni910   1.901   1_554  S
O891        C897   1.263       .  A
O892       Ni910   1.915       .  S
O892        C894   1.267       .  A
Ni893      O1248   1.922       .  S
Ni893       O898   1.908       .  S
Ni893      O1241   1.905   1_655  S
C894        O904   1.271       .  A
C894       C1004   1.447       .  S
O895       Ni911   1.959       .  S
O896      Ni1245   1.922   1_545  S
O896        C901   1.275   1_655  A
C897        C938   1.447       .  S
O898        C900   1.268       .  A
O899       Ni910   1.907   1_565  S
O899       C1242   1.271       .  A
C900        C915   1.460       .  S
C901        C913   1.459       .  S
H902       O1255   0.966       .  S
O903       H1254   0.966       .  S
O903       Ni911   1.921   1_565  S
O903      Ni1257   1.903   1_554  S
O903       Ni910   1.916   1_564  S
O904      Ni1257   1.937   1_545  S
Ni905      O1256   1.937       .  S
Ni905       O907   1.947       .  S
Ni905      O1255   1.903   1_556  S
O906      Ni1263   1.966       .  S
C908        O909   1.275       .  A
C908        C980   1.447       .  S
Ni911      O1258   1.966   1_545  S
C913        C914   1.220   1_455  T
C915        C916   1.221       .  T
C917        C918   1.394       .  A
C917       C1274   1.378       .  A
C917        H923   1.085   1_655  S
C918       C1271   1.412       .  A
C919       C1270   1.412       .  A
C919        C920   1.405       .  A
C919        H924   1.079       .  S
C920        C921   1.400       .  A
C920        H925   1.083       .  S
C921        C922   1.399       .  A
C922       C1269   1.378       .  A
C922        H926   1.070       .  S
C927        C928   1.409       .  A
C927        C932   1.411       .  A
C927        H933   1.083       .  S
C928        C929   1.400       .  A
C929        C930   1.385       .  A
C929        H934   1.084       .  S
C930        C931   1.405       .  A
C930        H935   1.083       .  S
C931        C932   1.407       .  A
C932        H936   1.083       .  S
C937        C938   1.211       .  T
C939        C940   1.405       .  A
C939        C944   1.390       .  A
C939        H945   1.083       .  S
C940        C941   1.403       .  A
C941        C942   1.391       .  A
C941        H946   1.083       .  S
C942        C943   1.404       .  A
C942        H947   1.083       .  S
C943        C944   1.401       .  A
C944        H948   1.084       .  S
C949        C950   1.408       .  A
C949        C954   1.400       .  A
C949        H955   1.083       .  S
C950        C951   1.405       .  A
C951        C952   1.401       .  A
C951        H956   1.083       .  S
C952        C953   1.409       .  A
C952        H957   1.083       .  S
C953        C954   1.405       .  A
C954        H958   1.083       .  S
C959        C960   1.407       .  A
C959        C964   1.399       .  A
C959        H965   1.083       .  S
C960        C961   1.404       .  A
C961        C962   1.394       .  A
C961        H966   1.083       .  S
C962        C963   1.406       .  A
C962        H967   1.083       .  S
C963        C964   1.406       .  A
C964        H968   1.083       .  S
C969        C970   1.405       .  A
C969       C1326   1.383   1_545  A
C969        H975   1.083       .  S
C970       C1323   1.405       .  A
C971       C1322   1.405       .  A
C971        C972   1.397       .  A
C971        H976   1.083       .  S
C972        C973   1.405       .  A
C972        H977   1.083       .  S
C973        C974   1.399       .  A
C974       C1321   1.383       .  A
C979        C980   1.213       .  T
C981        C982   1.211       .  T
C983        C984   1.408       .  A
C983        C988   1.400       .  A
C983        H989   1.083       .  S
C984        C985   1.405       .  A
C985        C986   1.401       .  A
C985        H990   1.083       .  S
C986        C987   1.408       .  A
C986        H991   1.083       .  S
C987        C988   1.405       .  A
C988        H992   1.083       .  S
C993        C994   1.403       .  A
C993        H999   1.083       .  S
C995        C996   1.389       .  A
C995       H1000   1.083       .  S
C996        C997   1.401       .  A
C996       H1001   1.084       .  S
C997        C998   1.404       .  A
C998       H1002   1.083       .  S
C1003      C1004   1.213       .  T
C1005      C1006   1.406       .  A
C1005      C1010   1.384       .  A
C1005      H1011   1.084       .  S
C1006      C1007   1.407       .  A
C1007      C1008   1.411       .  A
C1007      H1012   1.083       .  S
C1008      C1009   1.409       .  A
C1008      H1013   1.083       .  S
C1009      C1010   1.400       .  A
C1010      H1014   1.084       .  S
C1015      C1016   1.410       .  A
C1015      C1020   1.408   1_565  A
C1015      H1373   1.078       .  S
C1016      C1017   1.400       .  A
C1017      C1018   1.379   1_565  A
C1017      H1022   1.084       .  S
C1018      C1019   1.402       .  A
C1018      H1023   1.080       .  S
C1019      C1020   1.404       .  A
C1020      H1024   1.083       .  S
H1021      C1367   1.078       .  S
C1025      C1026   1.406       .  A
C1025      C1030   1.399       .  A
C1025      H1031   1.083       .  S
C1026      C1027   1.405       .  A
C1027      C1028   1.395       .  A
C1027      H1032   1.083       .  S
C1028      C1029   1.405       .  A
C1028      H1033   1.083       .  S
C1029      C1030   1.407       .  A
C1030      H1034   1.083       .  S
C1035      C1036   1.407       .  A
C1035      C1040   1.396   1_665  A
C1035      H1041   1.083       .  S
C1036      C1148   1.465       .  S
C1036      C1037   1.402   1_565  A
C1037      H1394   1.083       .  S
C1038      C1039   1.401       .  A
C1038      H1043   1.084       .  S
C1040      H1044   1.083       .  S
H1042      C1389   1.083       .  S
C1045      C1046   1.213       .  T
C1047      C1048   1.213       .  T
C1049      C1050   1.212       .  T
C1051      C1052   1.211       .  T
C1053      C1054   1.223       .  T
C1055      C1056   1.219       .  T
O1057     Ni1063   1.917       .  S
O1057      C1078   1.266       .  A
O1058     Ni1081   1.938   1_565  S
O1058      C1067   1.278       .  A
O1059      H1082   0.966   1_545  S
C1060      O1077   1.288       .  A
C1060      O1069   1.272       .  A
C1060      C1399   1.444       .  S
O1061     Ni1080   1.900       .  S
O1061      C1067   1.262       .  A
O1062     Ni1080   1.916       .  S
O1062      C1064   1.266       .  A
Ni1063     O1068   1.908       .  S
C1064      O1074   1.271       .  A
C1064      C1398   1.449       .  S
O1065      C1071   1.287       .  A
O1066      C1071   1.275       .  A
C1067      C1404   1.447       .  S
O1068      C1070   1.267       .  A
C1070      O1076   1.283       .  A
C1070      C1405   1.462       .  S
C1071      C1407   1.456       .  S
H1072      O1073   0.966       .  S
Ni1075     O1079   1.936       .  S
C1078      O1079   1.276       .  A
C1078      C1401   1.446       .  S
O1083     Ni1089   1.962       .  S
O1083      C1104   1.279       .  A
O1084     Ni1107   1.943       .  S
O1084      C1093   1.272       .  A
O1085      H1108   0.966       .  S
O1085     Ni1089   1.886       .  S
O1085     Ni1107   1.903       .  S
O1085     Ni1101   1.900       .  S
C1086      O1103   1.259       .  A
C1086      O1095   1.266       .  A
C1086      C1371   1.473       .  S
O1087     Ni1106   1.897       .  S
O1087      C1093   1.257       .  A
O1088     Ni1106   1.917       .  S
O1088      C1090   1.278       .  A
Ni1089     O1092   1.930       .  S
Ni1089     O1094   1.910       .  S
C1090      O1100   1.278       .  A
C1090      C1391   1.458       .  S
O1091     Ni1107   1.920       .  S
O1091      C1097   1.275       .  A
O1092      C1097   1.278       .  A
C1093      C1406   1.464       .  S
O1094      C1096   1.279       .  A
O1095     Ni1106   1.917       .  S
C1096      O1102   1.287       .  A
C1096      C1378   1.480       .  S
C1097      C1358   1.482       .  S
H1098      O1099   0.966       .  S
O1099     Ni1107   1.965       .  S
O1099     Ni1101   1.890       .  S
O1099     Ni1106   1.930       .  S
O1100     Ni1101   1.914       .  S
Ni1101     O1105   1.888       .  S
Ni1101     O1103   1.901       .  S
O1102     Ni1107   1.957       .  S
C1104      O1105   1.262       .  A
C1104      C1355   1.446       .  S
O1109     Ni1115   1.898       .  S
O1109      C1130   1.252       .  A
O1110     Ni1133   1.908       .  S
O1110      C1119   1.269       .  A
O1111      H1134   0.965       .  S
O1111     Ni1115   1.921       .  S
O1111     Ni1133   1.899       .  S
O1111     Ni1127   1.964       .  S
C1112      O1129   1.274       .  A
C1112      O1121   1.279       .  A
C1112      C1339   1.485       .  S
O1113     Ni1132   1.952       .  S
O1113      C1119   1.280       .  A
O1114     Ni1132   1.935       .  S
O1114      C1116   1.282       .  A
Ni1115     O1118   1.918       .  S
Ni1115     O1120   1.940       .  S
C1116      O1126   1.281       .  A
C1116      C1361   1.478       .  S
O1117     Ni1133   1.903       .  S
O1117      C1123   1.269       .  A
O1118      C1123   1.275       .  A
C1119      C1408   1.456       .  S
O1121     Ni1132   1.946       .  S
C1122      C1368   1.476       .  S
C1123      C1346   1.466       .  S
H1124      O1125   0.963       .  S
O1125     Ni1133   1.917       .  S
O1125     Ni1127   1.890       .  S
O1125     Ni1132   1.898       .  S
O1126     Ni1127   1.932       .  S
Ni1127     O1131   1.929       .  S
Ni1127     O1129   1.913       .  S
O1128     Ni1133   1.918       .  S
C1130      O1131   1.269       .  A
C1130      C1334   1.441       .  S
O1135     Ni1141   1.876       .  S
O1135      C1156   1.254       .  A
O1136     Ni1159   1.880       .  S
O1136      C1145   1.261       .  A
O1137      H1160   0.964       .  S
O1137     Ni1141   1.862       .  S
O1137     Ni1159   1.847       .  S
O1137     Ni1153   1.905       .  S
C1138      O1155   1.276       .  A
C1138      O1147   1.280       .  A
C1138      C1336   1.485       .  S
O1139     Ni1158   1.966       .  S
O1139      C1145   1.283       .  A
O1140     Ni1158   1.916       .  S
O1140      C1142   1.283       .  A
Ni1141     O1144   1.896       .  S
Ni1141     O1146   1.900       .  S
C1142      O1152   1.287       .  A
C1142      C1381   1.481       .  S
O1143     Ni1159   1.931       .  S
O1143      C1149   1.287       .  A
O1144      C1149   1.277       .  A
C1145      C1331   1.445       .  S
O1146      C1148   1.259       .  A
O1147     Ni1158   1.943       .  S
C1148      O1154   1.261       .  A
C1149      C1349   1.462       .  S
H1150      O1151   0.967       .  S
O1151     Ni1159   1.930       .  S
O1151     Ni1153   1.907       .  S
O1151     Ni1158   1.884       .  S
O1152     Ni1153   1.952       .  S
Ni1153     O1157   1.948       .  S
Ni1153     O1155   1.913       .  S
O1154     Ni1159   1.901       .  S
C1156      O1157   1.285       .  A
C1156      C1403   1.425       .  S
O1161     Ni1167   1.874       .  S
O1161      C1182   1.256       .  A
O1162     Ni1185   1.876       .  S
O1162      C1171   1.260       .  A
O1163      H1186   0.964       .  S
O1163     Ni1167   1.871       .  S
O1163     Ni1185   1.854       .  S
O1163     Ni1179   1.907       .  S
C1164      O1181   1.276       .  A
C1164      O1173   1.280       .  A
C1164      C1302   1.485       .  S
O1165     Ni1184   1.967       .  S
O1165      C1171   1.283       .  A
O1166     Ni1184   1.915       .  S
O1166      C1168   1.283       .  A
Ni1167     O1170   1.897       .  S
Ni1167     O1172   1.906       .  S
C1168      O1178   1.287       .  A
C1168      C1312   1.480       .  S
O1169     Ni1185   1.928       .  S
O1169      C1175   1.285       .  A
O1170      C1175   1.274       .  A
C1171      C1402   1.444       .  S
O1172      C1174   1.262       .  A
O1173     Ni1184   1.943       .  S
C1174      O1180   1.260       .  A
C1174      C1322   1.467       .  S
C1175      C1295   1.463       .  S
H1176      O1177   0.967       .  S
O1177     Ni1185   1.928       .  S
O1177     Ni1179   1.905       .  S
O1177     Ni1184   1.883       .  S
O1178     Ni1179   1.951       .  S
Ni1179     O1183   1.945       .  S
Ni1179     O1181   1.914       .  S
O1180     Ni1185   1.893       .  S
C1182      O1183   1.285       .  A
C1182      C1289   1.425       .  S
O1187     Ni1193   1.970       .  S
O1187      C1208   1.281       .  A
O1188     Ni1211   1.945       .  S
O1188      C1197   1.273       .  A
O1189      H1212   0.966       .  S
O1189     Ni1193   1.887       .  S
O1189     Ni1211   1.904       .  S
O1189     Ni1205   1.894       .  S
C1190      O1207   1.256       .  A
C1190      O1199   1.267       .  A
C1190      C1273   1.465       .  S
O1191     Ni1210   1.898       .  S
O1191      C1197   1.259       .  A
O1192     Ni1210   1.909       .  S
O1192      C1194   1.274       .  A
Ni1193     O1196   1.936       .  S
Ni1193     O1198   1.909       .  S
C1194      O1204   1.281       .  A
O1195     Ni1211   1.919       .  S
O1195      C1201   1.276       .  A
O1196      C1201   1.280       .  A
C1197      C1268   1.461       .  S
O1198      C1200   1.278       .  A
O1199     Ni1210   1.927       .  S
C1200      O1206   1.286       .  A
C1200      C1315   1.479       .  S
C1201      C1283   1.479       .  S
H1202      O1203   0.966       .  S
O1203     Ni1211   1.959       .  S
O1203     Ni1205   1.880       .  S
O1203     Ni1210   1.926       .  S
O1204     Ni1205   1.923       .  S
Ni1205     O1209   1.880       .  S
Ni1205     O1207   1.901       .  S
O1206     Ni1211   1.955       .  S
C1208      O1209   1.259       .  A
C1208      C1397   1.446       .  S
O1213     Ni1219   1.905       .  S
O1213      C1234   1.255       .  A
O1214     Ni1237   1.916       .  S
O1214      C1223   1.271       .  A
O1215      H1238   0.965       .  S
O1215     Ni1219   1.924       .  S
O1215     Ni1237   1.903       .  S
O1215     Ni1231   1.964       .  S
C1216      O1233   1.274       .  A
C1216      O1225   1.279       .  A
C1216      C1305   1.487       .  S
O1217     Ni1236   1.950       .  S
O1217      C1223   1.279       .  A
O1218     Ni1236   1.936       .  S
O1218      C1220   1.281       .  A
Ni1219     O1222   1.915   1_655  S
Ni1219     O1224   1.923       .  S
C1220      O1230   1.280       .  A
C1220      C1280   1.477       .  S
O1221     Ni1237   1.904   1_455  S
O1221      C1227   1.269       .  A
O1222      C1227   1.273       .  A
C1223      C1266   1.459       .  S
O1224      C1226   1.269       .  A
O1225     Ni1236   1.947       .  S
C1226      O1232   1.270       .  A
C1226      C1270   1.463       .  S
H1228      O1229   0.965       .  S
O1229     Ni1237   1.918       .  S
O1229     Ni1231   1.892       .  S
O1229     Ni1236   1.903       .  S
O1230     Ni1231   1.933       .  S
Ni1231     O1235   1.925       .  S
Ni1231     O1233   1.913       .  S
O1232     Ni1237   1.918       .  S
C1234      O1235   1.268       .  A
C1234      C1400   1.446       .  S
O1239     Ni1245   1.921   1_556  S
O1239      C1260   1.267       .  A
O1240     Ni1263   1.938       .  S
O1240      C1249   1.278       .  A
C1242      O1259   1.288       .  A
C1242      C1333   1.440       .  S
O1243     Ni1262   1.901   1_554  S
O1243      C1249   1.263       .  A
O1244     Ni1262   1.915       .  S
O1244      C1246   1.267       .  A
Ni1245     O1250   1.908       .  S
C1246      O1256   1.271       .  A
C1246      C1356   1.447       .  S
O1247     Ni1263   1.959       .  S
O1248      C1253   1.275   1_655  A
C1249      C1290   1.447       .  S
O1250      C1252   1.268       .  A
O1251     Ni1262   1.907       .  S
C1252      C1267   1.460       .  S
C1253      C1265   1.459       .  S
O1255     Ni1263   1.921       .  S
O1255     Ni1262   1.916   1_554  S
Ni1257     O1259   1.947       .  S
C1260      O1261   1.275       .  A
C1260      C1332   1.447       .  S
C1265      C1266   1.220   1_455  T
C1267      C1268   1.221       .  T
C1269      C1270   1.394       .  A
C1269      H1275   1.085   1_655  S
C1271      C1272   1.405   1_545  A
C1271      H1276   1.079       .  S
C1272      C1273   1.400       .  A
C1272      H1277   1.083       .  S
C1273      C1274   1.399   1_565  A
C1274      H1278   1.070   1_545  S
C1279      C1280   1.409       .  A
C1279      C1284   1.411       .  A
C1279      H1285   1.083       .  S
C1280      C1281   1.400       .  A
C1281      C1282   1.385       .  A
C1281      H1286   1.084       .  S
C1282      C1283   1.405       .  A
C1282      H1287   1.083       .  S
C1283      C1284   1.407       .  A
C1284      H1288   1.083       .  S
C1289      C1290   1.211       .  T
C1291      C1292   1.405       .  A
C1291      C1296   1.390       .  A
C1291      H1297   1.083       .  S
C1292      C1293   1.403       .  A
C1293      C1294   1.391       .  A
C1293      H1298   1.083       .  S
C1294      C1295   1.404       .  A
C1294      H1299   1.083       .  S
C1295      C1296   1.401       .  A
C1296      H1300   1.084       .  S
C1301      C1302   1.408       .  A
C1301      C1306   1.400       .  A
C1301      H1307   1.083       .  S
C1302      C1303   1.405       .  A
C1303      C1304   1.401       .  A
C1303      H1308   1.083       .  S
C1304      C1305   1.409       .  A
C1304      H1309   1.083       .  S
C1305      C1306   1.405       .  A
C1306      H1310   1.083       .  S
C1311      C1312   1.407       .  A
C1311      C1316   1.399       .  A
C1311      H1317   1.083       .  S
C1312      C1313   1.404       .  A
C1313      C1314   1.394       .  A
C1313      H1318   1.083       .  S
C1314      C1315   1.406       .  A
C1314      H1319   1.083       .  S
C1315      C1316   1.406       .  A
C1316      H1320   1.083       .  S
C1321      C1322   1.405       .  A
C1321      H1327   1.083       .  S
C1323      C1324   1.397   1_545  A
C1323      H1328   1.083       .  S
C1324      C1325   1.405       .  A
C1324      H1329   1.083       .  S
C1325      C1326   1.399       .  A
C1331      C1332   1.213       .  T
C1333      C1334   1.211       .  T
C1335      C1336   1.408       .  A
C1335      C1340   1.400       .  A
C1335      H1341   1.083       .  S
C1336      C1337   1.405       .  A
C1337      C1338   1.401       .  A
C1337      H1342   1.083       .  S
C1338      C1339   1.408       .  A
C1338      H1343   1.083       .  S
C1339      C1340   1.405       .  A
C1340      H1344   1.083       .  S
C1345      C1346   1.403       .  A
C1345      H1351   1.083       .  S
C1347      C1348   1.389       .  A
C1347      H1352   1.083       .  S
C1348      C1349   1.401       .  A
C1348      H1353   1.084       .  S
C1349      C1350   1.404       .  A
C1350      H1354   1.083       .  S
C1355      C1356   1.213       .  T
C1357      C1358   1.406       .  A
C1357      C1362   1.384       .  A
C1357      H1363   1.084       .  S
C1358      C1359   1.407       .  A
C1359      C1360   1.411       .  A
C1359      H1364   1.083       .  S
C1360      C1361   1.409       .  A
C1360      H1365   1.083       .  S
C1361      C1362   1.400       .  A
C1362      H1366   1.084       .  S
C1367      C1368   1.410       .  A
C1367      C1372   1.408       .  A
C1368      C1369   1.400       .  A
C1369      C1370   1.379       .  A
C1369      H1374   1.084       .  S
C1370      C1371   1.402       .  A
C1370      H1375   1.080       .  S
C1371      C1372   1.404       .  A
C1372      H1376   1.083       .  S
C1377      C1378   1.406       .  A
C1377      C1382   1.399       .  A
C1377      H1383   1.083       .  S
C1378      C1379   1.405       .  A
C1379      C1380   1.395       .  A
C1379      H1384   1.083       .  S
C1380      C1381   1.405       .  A
C1380      H1385   1.083       .  S
C1381      C1382   1.407       .  A
C1382      H1386   1.083       .  S
C1387      C1388   1.407       .  A
C1387      C1392   1.396   1_655  A
C1387      H1393   1.083       .  S
C1388      C1389   1.402       .  A
C1390      C1391   1.401       .  A
C1390      H1395   1.084       .  S
C1392      H1396   1.083       .  S
C1397      C1398   1.213       .  T
C1399      C1400   1.213       .  T
C1401      C1402   1.212       .  T
C1403      C1404   1.211       .  T
C1405      C1406   1.223       .  T
C1407      C1408   1.219       .  T
