geometry optimzed in LAMMPS
_audit_creation_date              2020-12-01 
_audit_creation_method            'lammps2cif' 
_symmetry_space_group_name_H-M    'P1' 
_symmetry_Int_Tables_number       1 
_symmetry_cell_setting            triclinic 
loop_ 
_symmetry_equiv_pos_as_xyz 
  x,y,z 
_cell_length_a                    32.79186699 
_cell_length_b                    32.840954775780716 
_cell_length_c                    31.744522843496693 
_cell_angle_alpha                 89.42624021134465 
_cell_angle_beta                  91.31635645036185 
_cell_angle_gamma                 89.9114106335915 
loop_ 
_atom_site_label 
_atom_site_type_symbol 
_atom_site_fract_x 
_atom_site_fract_y 
_atom_site_fract_z 
_atom_site_charge 
N1          N  0.79188849  0.96925878  0.96433294    -0.26500
N2          N  0.82656105  0.96740797  0.94414621    -0.34400
C3          C  0.83983256  0.00510211  0.93602820     0.01800
C4          C  0.81237016  0.03282685  0.95152548     0.07800
C5          C  0.78199721  0.00901189  0.96934320    -0.05300
H6          H  0.86876063  0.01165642  0.92182866     0.08500
H7          H  0.75583907  0.01972262  0.98620743     0.09700
Cu8        Cu  0.85929673  0.91474559  0.43533187     0.44200
Cu9        Cu  0.76467935  0.91493903  0.98492679     0.42000
Cu10       Cu  0.83353735  0.82221672  0.48572508     0.43900
N11         N  0.90064043  0.86811523  0.44484340    -0.33900
N12         N  0.89300517  0.83406761  0.46564608    -0.28200
C13         C  0.92851769  0.81334768  0.47142143    -0.04300
C14         C  0.95964314  0.83589186  0.45331676     0.07900
C15         C  0.94046636  0.87019550  0.43677910     0.01700
H16         H  0.93169539  0.78493961  0.48872895     0.09400
H17         H  0.95466442  0.89610941  0.42184085     0.08500
N18         N  0.77023640  0.82169958  0.49538641    -0.35400
N19         N  0.74621111  0.85426564  0.99468826    -0.27600
C20         C  0.70719789  0.84193663  0.99776934    -0.02800
C21         C  0.70621151  0.79973258  0.00053123     0.05800
C22         C  0.74685962  0.78810878  0.49928375     0.03900
H23         H  0.68129659  0.86237222  0.99698841     0.09000
H24         H  0.75845440  0.75725863  0.49885880     0.07900
N25         N  0.06805624  0.80773384  0.46748984    -0.26500
N26         N  0.06991641  0.84317403  0.44768202    -0.34400
C27         C  0.03224237  0.85700339  0.43905792     0.01800
C28         C  0.00441262  0.82928564  0.45413148     0.07800
C29         C  0.02816985  0.79806592  0.47207669    -0.05300
H30         H  0.02579700  0.88631249  0.42456070     0.08500
H31         H  0.01731372  0.77114052  0.48817703     0.09700
Cu32       Cu  0.12244713  0.87585192  0.43940534     0.44200
Cu33       Cu  0.12289331  0.77893301  0.48699154     0.42000
Cu34       Cu  0.21528464  0.84973465  0.48850928     0.43900
N35         N  0.16865593  0.91740577  0.44700371    -0.33900
N36         N  0.20347553  0.90972268  0.46718548    -0.28200
C37         C  0.22441514  0.94519170  0.47081773    -0.04300
C38         C  0.20103002  0.97627788  0.45206049     0.07900
C39         C  0.16612435  0.95708879  0.43737407     0.01700
H40         H  0.25354754  0.94840199  0.48711118     0.09400
H41         H  0.13970163  0.97115607  0.42226449     0.08500
N42         N  0.21651326  0.78594375  0.49779405    -0.35400
N43         N  0.18446107  0.76125353  0.49634296    -0.27600
C44         C  0.19786798  0.72241468  0.49901218    -0.02800
C45         C  0.24019619  0.72224721  0.50240019     0.05800
C46         C  0.25072842  0.76315595  0.50191293     0.03900
H47         H  0.17809793  0.69610249  0.49777254     0.09000
H48         H  0.28132012  0.77544984  0.50225124     0.07900
N49         N  0.95294611  0.24639457  0.97085352    -0.26500
N50         N  0.95079648  0.21023718  0.95327330    -0.34400
C51         C  0.98823268  0.19655030  0.94572911     0.01800
C52         C  0.01639673  0.22516844  0.95890356     0.07800
C53         C  0.99294270  0.25680714  0.97484802    -0.05300
H54         H  0.99428589  0.16706020  0.93239987     0.08500
H55         H  0.00407873  0.28472738  0.98873125     0.09700
Cu56       Cu  0.89829492  0.17750280  0.94380020     0.44200
Cu57       Cu  0.89781989  0.27490751  0.98652227     0.42000
Cu58       Cu  0.80301265  0.20539307  0.97754334     0.43900
N59         N  0.85188095  0.13604473  0.94778221    -0.33900
N60         N  0.81568093  0.14448428  0.96268091    -0.28200
C61         C  0.79447795  0.10918532  0.96597969    -0.04300
C62         C  0.81908412  0.07747738  0.95223380     0.07900
C63         C  0.85501598  0.09607287  0.94097266     0.01700
H64         H  0.76404426  0.10664127  0.97817006     0.09400
H65         H  0.88243312  0.08147904  0.93027526     0.08500
N66         N  0.80347829  0.26920087  0.98439466    -0.35400
N67         N  0.83606395  0.29296028  0.98873017    -0.27600
C68         C  0.82346523  0.33196731  0.99122400    -0.02800
C69         C  0.78120504  0.33323982  0.98792515     0.05800
C70         C  0.76977351  0.29283976  0.98349502     0.03900
H71         H  0.84386277  0.35773949  0.99346717     0.09000
H72         H  0.73901681  0.28137585  0.97962891     0.07900
N73         N  0.23025864  0.08470740  0.45746827    -0.26500
N74         N  0.19213999  0.08645882  0.44341908    -0.34400
C75         C  0.17733558  0.04879731  0.43881320     0.01800
C76         C  0.20725371  0.02106156  0.45071385     0.07800
C77         C  0.24075717  0.04491454  0.46246694    -0.05300
H78         H  0.14620825  0.04228354  0.42914296     0.08500
H79         H  0.27004661  0.03419323  0.47441879     0.09700
Cu80       Cu  0.15913976  0.13941269  0.43758012     0.44200
Cu81       Cu  0.26098899  0.13992645  0.46923246     0.42000
Cu82       Cu  0.19142478  0.23414325  0.47553803     0.43900
N83         N  0.11926566  0.18638880  0.44724343    -0.33900
N84         N  0.12914822  0.22199601  0.46335673    -0.28200
C85         C  0.09416462  0.24309380  0.96975982    -0.04300
C86         C  0.06119529  0.21894593  0.95694202     0.07900
C87         C  0.07879630  0.18350653  0.94292557     0.01700
H88         H  0.09274614  0.27305960  0.98349298     0.09400
H89         H  0.06337775  0.15649006  0.43173302     0.08500
N90         N  0.25589921  0.23344191  0.47926665    -0.35400
N91         N  0.27994072  0.20104532  0.47606751    -0.27600
C92         C  0.31918461  0.21341517  0.47815979    -0.02800
C93         C  0.32030803  0.25535524  0.48328043     0.05800
C94         C  0.27954097  0.26676783  0.48395726     0.03900
H95         H  0.34505760  0.19305559  0.47678693     0.09000
H96         H  0.26782335  0.29739443  0.48691025     0.07900
C97         C  0.56495405  0.68930294  0.99064292     0.30800
C98         C  0.49858357  0.63905120  0.98610636     0.30800
C99         C  0.53374332  0.69761779  0.45323437    -0.05400
C100        C  0.57465376  0.64371169  0.98461543    -0.06200
C101        C  0.53763181  0.68834207  0.02960674    -0.06100
C102        C  0.49877912  0.67235121  0.45222079    -0.05400
C103        C  0.54078409  0.61849939  0.98076596    -0.06200
C104        C  0.50390963  0.66290413  0.02698331    -0.06100
C105        C  0.48446471  0.67070766  0.41107027    -0.31500
N106        N  0.50880923  0.69360104  0.38673791     0.15000
C107        C  0.53999463  0.70796254  0.41113562    -0.31500
H108        H  0.56729829  0.72147391  0.39861070     0.17000
C109        C  0.55543896  0.58072901  0.97041512    -0.30500
N110        N  0.59650765  0.57975394  0.97548855     0.13700
C111        C  0.60881867  0.61891567  0.98165946    -0.30500
C112        C  0.48568371  0.66253016  0.06574401    -0.30800
N113        N  0.50747436  0.68703508  0.09197145     0.14200
H114        H  0.46054723  0.64342930  0.07516147     0.16900
C115        C  0.53975059  0.70228509  0.07067918    -0.30800
H116        H  0.56419993  0.72000030  0.08474236     0.16900
H117        H  0.64032906  0.62824556  0.98494504     0.16900
H118        H  0.46152768  0.64998425  0.39889572     0.17000
H119        H  0.53805573  0.55765507  0.95454544     0.16900
C120        C  0.35254148  0.58180134  0.00067152     0.30800
C121        C  0.40261343  0.51497879  0.00420462     0.30800
C122        C  0.34472105  0.54940873  0.46591852    -0.05400
C123        C  0.39822413  0.59065970  0.99466247    -0.06200
C124        C  0.35265890  0.55631446  0.04198285    -0.06100
C125        C  0.37016310  0.51458795  0.46850780    -0.05400
C126        C  0.42377927  0.55673543  0.99705468    -0.06200
C127        C  0.37774875  0.52209428  0.04322323    -0.06100
C128        C  0.37343561  0.49958512  0.42820503    -0.31500
N129        N  0.35130211  0.52330591  0.40137539     0.15000
C130        C  0.33586767  0.55475232  0.42312160    -0.31500
H131        H  0.32314075  0.58186865  0.40828837     0.17000
C132        C  0.46270216  0.57125432  0.99256354    -0.30500
N133        N  0.46229776  0.61215786  0.98624535     0.13700
C134        C  0.42264327  0.62440466  0.98755527    -0.30500
C135        C  0.37729777  0.50582077  0.08332949    -0.30800
N136        N  0.35259748  0.52929389  0.10663624     0.14200
H137        H  0.39580977  0.48085623  0.09551169     0.16900
C138        C  0.33797238  0.56060066  0.08223399    -0.30800
H139        H  0.31991494  0.58565247  0.09355121     0.16900
H140        H  0.41258096  0.65571755  0.98480750     0.16900
H141        H  0.39489489  0.47672134  0.41827407     0.17000
H142        H  0.48962273  0.55379148  0.99689711     0.16900
C143        C  0.62248343  0.54274804  0.97948458     0.30800
C144        C  0.67261716  0.47622975  0.98573969     0.30800
C145        C  0.65407805  0.54402717  0.01609224    -0.05400
C146        C  0.60119352  0.50097351  0.98704912    -0.06200
C147        C  0.64823312  0.53495256  0.44135824    -0.06100
C148        C  0.67956733  0.50933614  0.02017940    -0.05400
C149        C  0.62687331  0.46728246  0.99087801    -0.06200
C150        C  0.67334383  0.50083512  0.44375047    -0.06100
C151        C  0.68731829  0.50513990  0.06345723    -0.31500
N152        N  0.67142860  0.53722193  0.08411367     0.15000
C153        C  0.64985808  0.56010639  0.05593450    -0.31500
H154        H  0.62805919  0.58317781  0.06456691     0.17000
C155        C  0.60262179  0.43343001  0.99834344    -0.30500
N156        N  0.56282779  0.44531679  0.49862113     0.13700
C157        C  0.56224401  0.48609110  0.99109742    -0.30500
C158        C  0.68785368  0.49531235  0.40342731    -0.30800
N159        N  0.67300071  0.52587859  0.37809327     0.14200
H160        H  0.70588603  0.46995157  0.39278762     0.16900
C161        C  0.64848902  0.55001288  0.40081532    -0.30800
H162        H  0.62986198  0.57458503  0.38794908     0.16900
H163        H  0.53513481  0.50306430  0.48573658     0.16900
H164        H  0.69961780  0.47834489  0.07928775     0.17000
H165        H  0.61294786  0.40227220  0.00202520     0.16900
C166        C  0.46011362  0.36795681  0.49338087     0.30800
C167        C  0.52661313  0.41818262  0.49849878     0.30800
C168        C  0.48815850  0.36840341  0.45473071    -0.05400
C169        C  0.45054743  0.41387247  0.49753007    -0.06200
C170        C  0.49053092  0.35991588  0.03099326    -0.06100
C171        C  0.52209770  0.39373027  0.45781091    -0.05400
C172        C  0.48437779  0.43887872  0.50264864    -0.06200
C173        C  0.52541707  0.38530988  0.03279436    -0.06100
C174        C  0.53958119  0.39575431  0.41869075    -0.31500
N175        N  0.51696425  0.37280723  0.39171676     0.15000
C176        C  0.48473744  0.35731169  0.41271277    -0.31500
H177        H  0.45930157  0.34174915  0.39775670     0.17000
C178        C  0.46960219  0.47661029  0.01313961    -0.30500
N179        N  0.42868392  0.47793723  0.00641545     0.13700
C180        C  0.41655711  0.43912832  0.99795892    -0.30500
C181        C  0.53802586  0.38745093  0.07442430    -0.30800
N182        N  0.51298660  0.36435121  0.09784967     0.14200
H183        H  0.56039226  0.40836845  0.08736156     0.16900
C184        C  0.48321446  0.34882713  0.07246428    -0.30800
H185        H  0.45608924  0.33396008  0.08375770     0.16900
H186        H  0.38530722  0.43023309  0.99151028     0.16900
H187        H  0.56439127  0.41541661  0.40956320     0.17000
H188        H  0.48682894  0.49957662  0.02946523     0.16900
N189        N  0.94389049  0.81085710  0.29553777    -0.26500
N190        N  0.94318099  0.84229776  0.32103593    -0.34400
C191        C  0.98141772  0.85261607  0.33210895     0.01800
C192        C  0.00826532  0.82680270  0.31250742     0.07800
C193        C  0.98331411  0.80027380  0.28960662    -0.05300
H194        H  0.98907717  0.87920246  0.35043739     0.08500
H195        H  0.99310274  0.77686612  0.26831994     0.09700
Cu196      Cu  0.89160613  0.87679113  0.33049400     0.44200
Cu197      Cu  0.88867903  0.79005601  0.26895787     0.42000
Cu198      Cu  0.79722414  0.86045632  0.27470090     0.43900
N199        N  0.84763828  0.92147227  0.32272455    -0.33100
N200        N  0.81307802  0.91741767  0.30093585    -0.28200
C201        C  0.79459598  0.95439949  0.29838036    -0.04300
C202        C  0.81912650  0.98268662  0.31945339     0.07900
C203        C  0.85225964  0.96034755  0.33433571     0.01700
H204        H  0.76631029  0.96056044  0.28127992     0.09400
H205        H  0.87895286  0.97177633  0.35096506     0.08500
N206        N  0.79529472  0.79850805  0.25668172    -0.35400
N207        N  0.82782863  0.77455577  0.25464783    -0.27600
C208        C  0.81556256  0.73643136  0.24595220    -0.02800
C209        C  0.77336130  0.73552208  0.24252589     0.05800
C210        C  0.76160123  0.77567433  0.24907411     0.03900
H211        H  0.83614464  0.71083512  0.24368056     0.09000
H212        H  0.73065856  0.78693631  0.25069308     0.07900
N213        N  0.79558507  0.09258926  0.31606512    -0.26500
N214        N  0.83216250  0.09194953  0.33435119    -0.34400
C215        C  0.84482048  0.05328968  0.33896992     0.01800
C216        C  0.81497893  0.02762137  0.32297367     0.07800
C217        C  0.78393828  0.05366020  0.30865966    -0.05300
H218        H  0.87470839  0.04471521  0.35115234     0.08500
H219        H  0.75580760  0.04503049  0.29270881     0.09700
Cu220      Cu  0.86720689  0.14320552  0.34540448     0.44200
Cu221      Cu  0.76795971  0.14862926  0.29961429     0.42000
Cu222      Cu  0.83881637  0.23953178  0.30343220     0.43900
N223        N  0.90822848  0.19044566  0.33882339    -0.33900
N224        N  0.89933886  0.22607682  0.32128460    -0.28200
C225        C  0.93456068  0.24677017  0.31551998    -0.04300
C226        C  0.96689675  0.22259409  0.33022951     0.07900
C227        C  0.94865359  0.18737051  0.34482445     0.01700
H228        H  0.93663032  0.27615724  0.30002895     0.09400
H229        H  0.96376496  0.16010313  0.35651146     0.08500
N230        N  0.77600434  0.24153773  0.28908729    -0.35400
N231        N  0.75123454  0.20965808  0.28694545    -0.27600
C232        C  0.71335645  0.22295265  0.27645743    -0.02800
C233        C  0.71400263  0.26506639  0.27198392     0.05800
C234        C  0.75424880  0.27563302  0.28051304     0.03900
H235        H  0.68697931  0.20337113  0.27346892     0.09000
H236        H  0.76692625  0.30602570  0.28032504     0.07900
N237        N  0.22387151  0.96357394  0.30043165    -0.26500
N238        N  0.18942028  0.96262258  0.32112802    -0.34400
C239        C  0.17818349  0.00070605  0.33041780     0.01800
C240        C  0.20653954  0.02765461  0.31453822     0.07800
C241        C  0.23541150  0.00296182  0.29579728    -0.05300
H242        H  0.14985884  0.00825868  0.34531058     0.08500
H243        H  0.26166666  0.01295365  0.27848599     0.09700
Cu244      Cu  0.15428581  0.91081846  0.32777942     0.44200
Cu245      Cu  0.24871937  0.90908370  0.27781908     0.42000
Cu246      Cu  0.17825943  0.81864112  0.27392711     0.43900
N247        N  0.11263476  0.86442977  0.31823968    -0.33900
N248        N  0.11931786  0.83115707  0.29632312    -0.28200
C249        C  0.08341744  0.81101170  0.29153238    -0.04300
C250        C  0.05314631  0.83290722  0.31165727     0.07900
C251        C  0.07320595  0.86629317  0.32822851     0.01700
H252        H  0.07938617  0.78330118  0.27378641     0.09400
H253        H  0.05974388  0.89159226  0.34448547     0.08500
N254        N  0.24131122  0.81718194  0.26071448    -0.35400
N255        N  0.26583220  0.84924182  0.26235165    -0.27600
C256        C  0.30423543  0.83695357  0.25491982    -0.02800
C257        C  0.30465527  0.79514665  0.24815697     0.05800
C258        C  0.26389318  0.78388498  0.25208776     0.03900
H259        H  0.33021543  0.85718348  0.25526779     0.09000
H260        H  0.25164170  0.75337741  0.25071106     0.07900
N261        N  0.07424694  0.24756909  0.30893854    -0.26500
N262        N  0.07700271  0.21155125  0.32754121    -0.34400
C263        C  0.04004908  0.19903998  0.33891616     0.01800
C264        C  0.01164318  0.22820707  0.32694289     0.07800
C265        C  0.03440788  0.25900025  0.30798195    -0.05300
H266        H  0.03421182  0.16954598  0.35292965     0.08500
H267        H  0.02273485  0.28664726  0.29330254     0.09700
Cu268      Cu  0.12881345  0.17644728  0.33020385     0.44200
Cu269      Cu  0.12800481  0.27377568  0.28558395     0.42000
Cu270      Cu  0.21855986  0.19921825  0.27885377     0.43900
N271        N  0.17239302  0.13284465  0.32040725    -0.33900
N272        N  0.20583450  0.13924290  0.29902793    -0.28200
C273        C  0.22492027  0.10291906  0.29428087    -0.04300
C274        C  0.20188574  0.07268617  0.31382132     0.07900
C275        C  0.16907196  0.09322965  0.32999219     0.01700
H276        H  0.25262417  0.09862094  0.27700088     0.09400
H277        H  0.14337491  0.08016950  0.34602099     0.08500
N278        N  0.22075160  0.26329965  0.27193941    -0.35400
N279        N  0.18933261  0.28885090  0.27346513    -0.27600
C280        C  0.20336408  0.32725860  0.26943483    -0.02800
C281        C  0.24543687  0.32632815  0.26584018     0.05800
C282        C  0.25525694  0.28521125  0.26747898     0.03900
H283        H  0.18437481  0.35417186  0.27064418     0.09000
H284        H  0.28543906  0.27207454  0.26579552     0.07900
C285        C  0.62148407  0.52128158  0.23234905     0.30800
C286        C  0.66825168  0.59010651  0.23504629     0.30800
C287        C  0.64523945  0.53008827  0.19262623    -0.05400
C288        C  0.59828201  0.56202881  0.23847405    -0.06200
C289        C  0.65447559  0.52154081  0.26728768    -0.06100
C290        C  0.66864424  0.56551846  0.19334870    -0.05400
C291        C  0.62219898  0.59688001  0.24178296    -0.06200
C292        C  0.67813059  0.55719704  0.26953851    -0.06100
C293        C  0.68183849  0.57143770  0.15246618    -0.31500
N294        N  0.66803456  0.54004802  0.12826306     0.15000
C295        C  0.64534268  0.51483412  0.15231787    -0.31500
H296        H  0.62811766  0.48904387  0.14066615     0.17000
C297        C  0.59571517  0.62962856  0.24588919    -0.30500
N298        N  0.55658175  0.61596874  0.24260531     0.13700
C299        C  0.55856815  0.57558239  0.23444828    -0.30500
C300        C  0.68847871  0.56114779  0.31210067    -0.30800
N301        N  0.67574794  0.52800035  0.33389823     0.14200
H302        H  0.70004455  0.58843261  0.32696758     0.16900
C303        C  0.65371824  0.50447675  0.30722897    -0.30800
H304        H  0.63352720  0.48040519  0.31730573     0.16900
H305        H  0.53379985  0.55859903  0.22061887     0.16900
H306        H  0.69861867  0.59738459  0.14079724     0.17000
H307        H  0.60410426  0.66126857  0.24941599     0.16900
C308        C  0.50258969  0.41871442  0.24078647     0.30800
C309        C  0.57195322  0.37223251  0.24261780     0.30800
C310        C  0.50362382  0.38499286  0.20746471    -0.05400
C311        C  0.54314412  0.44169490  0.23425630    -0.06200
C312        C  0.51115309  0.39571633  0.28180992    -0.06100
C313        C  0.53970467  0.36111294  0.20800792    -0.05400
C314        C  0.57829478  0.41798309  0.23281627    -0.06200
C315        C  0.54669859  0.37259330  0.28343764    -0.06100
C316        C  0.54544480  0.35050156  0.16633524    -0.31500
N317        N  0.51344525  0.36348818  0.14218448     0.15000
C318        C  0.48865975  0.38583763  0.16634343    -0.31500
H319        H  0.46507799  0.40600930  0.15390972     0.17000
C320        C  0.61093376  0.44457790  0.22881219    -0.30500
N321        N  0.59689050  0.48347520  0.23189528     0.13700
C322        C  0.55654803  0.48088759  0.23947129    -0.30500
C323        C  0.55203444  0.36003381  0.32512823    -0.30800
N324        N  0.52013861  0.37417848  0.34752135     0.14200
H325        H  0.57795157  0.34365347  0.33855318     0.16900
C326        C  0.49517215  0.39623910  0.32150681    -0.30800
H327        H  0.46913934  0.41368491  0.33145865     0.16900
H328        H  0.54010291  0.50360731  0.25602051     0.16900
H329        H  0.57335616  0.33882173  0.15347937     0.17000
H330        H  0.64279255  0.43634004  0.22692184     0.16900
C331        C  0.51888309  0.64098454  0.24258860     0.30800
C332        C  0.44964019  0.68799563  0.23956955     0.30800
C333        C  0.51181525  0.66571238  0.20217785    -0.05400
C334        C  0.47804125  0.61797274  0.24779271    -0.06200
C335        C  0.51694848  0.67307511  0.27699021    -0.06100
C336        C  0.47649601  0.68943074  0.19998907    -0.05400
C337        C  0.44262251  0.64154316  0.24536513    -0.06200
C338        C  0.48086400  0.69651000  0.27644606    -0.06100
C339        C  0.47159387  0.70120295  0.15796834    -0.31500
N340        N  0.50392565  0.68694035  0.13617643     0.15000
C341        C  0.52828090  0.66481676  0.16273743    -0.31500
H342        H  0.55392841  0.64656985  0.15320585     0.17000
C343        C  0.41020333  0.61465038  0.24979581    -0.30500
N344        N  0.42492212  0.57598107  0.25424972     0.13700
C345        C  0.46616822  0.57863371  0.25647008    -0.30500
C346        C  0.47501938  0.70703876  0.31821006    -0.30800
N347        N  0.50722817  0.69395457  0.34232780     0.14200
H348        H  0.44745782  0.71985587  0.33074402     0.16900
C349        C  0.53211955  0.67199411  0.31794369    -0.30800
H350        H  0.55622123  0.65227530  0.33006842     0.16900
H351        H  0.48606204  0.55446891  0.26706478     0.16900
H352        H  0.44541654  0.71666550  0.14389591     0.17000
H353        H  0.37810109  0.62205913  0.24939816     0.16900
C354        C  0.35326265  0.46922824  0.25299759     0.30800
C355        C  0.40025950  0.53809585  0.25334824     0.30800
C356        C  0.35127091  0.49588344  0.29260961    -0.05400
C357        C  0.39962295  0.46193389  0.24979671    -0.06200
C358        C  0.34511440  0.50028423  0.21601952    -0.06100
C359        C  0.37511214  0.53099517  0.29259192    -0.05400
C360        C  0.42320601  0.49709738  0.24822483    -0.06200
C361        C  0.36834605  0.53641286  0.21763206    -0.06100
C362        C  0.37579780  0.54626149  0.33287737    -0.31500
N363        N  0.35308847  0.52134048  0.35721425     0.15000
C364        C  0.33877765  0.49003526  0.33351490    -0.31500
H365        H  0.32285611  0.46378005  0.34574985     0.17000
C366        C  0.46164859  0.48466979  0.23783752    -0.30500
N367        N  0.46455476  0.44344072  0.24049871     0.13700
C368        C  0.42608667  0.42913383  0.24618927    -0.30500
C369        C  0.37057987  0.55192881  0.17726375    -0.30800
N370        N  0.35024525  0.52691845  0.15081098     0.14200
H371        H  0.39042513  0.57625221  0.16708342     0.16900
C372        C  0.33703749  0.49430891  0.17321063    -0.30800
H373        H  0.32586752  0.46650763  0.15907228     0.16900
H374        H  0.41817631  0.39719597  0.24737529     0.16900
H375        H  0.39410385  0.57134632  0.34444932     0.17000
H376        H  0.48386530  0.50418343  0.22414088     0.16900
C377        C  0.33709811  0.39722796  0.27959493    -0.20600
C378        C  0.32536887  0.43144905  0.25491227    -0.08600
C379        C  0.28574699  0.43104787  0.23609887     0.30300
C380        C  0.26060555  0.39672387  0.23944179    -0.20600
C381        C  0.27341152  0.36197603  0.26214660    -0.08600
C382        C  0.31196713  0.36269563  0.28256962     0.30300
F383        F  0.32463704  0.33084803  0.30711967    -0.19100
H384        H  0.36564769  0.39737480  0.29735179     0.18600
H385        H  0.23064575  0.39751017  0.22435809     0.18600
F386        F  0.26977706  0.46439812  0.21634515    -0.19100
C387        C  0.38059944  0.78266177  0.25385077    -0.20600
C388        C  0.34149928  0.76844873  0.24230068    -0.08600
C389        C  0.33869889  0.72905011  0.22508652     0.30300
C390        C  0.37361173  0.70416411  0.22213936    -0.20600
C391        C  0.41211419  0.71688680  0.23776838    -0.08600
C392        C  0.41529303  0.75780881  0.25102010     0.30300
F393        F  0.45206107  0.77434296  0.26119370    -0.19100
H394        H  0.38461459  0.81312330  0.26587609     0.18600
H395        H  0.37031816  0.67509385  0.20692719     0.18600
F396        F  0.30247922  0.71467173  0.21011867    -0.19100
C397        C  0.67706897  0.33138595  0.28126834    -0.20600
C398        C  0.67896160  0.29295182  0.26237249    -0.08600
C399        C  0.64640950  0.28102437  0.23569077     0.30300
C400        C  0.61264269  0.30669399  0.22869768    -0.20600
C401        C  0.61045777  0.34543046  0.24742914    -0.08600
C402        C  0.64310120  0.35693833  0.27464271     0.30300
F403        F  0.64152260  0.39219043  0.29647208    -0.19100
H404        H  0.70128022  0.34108615  0.30265009     0.18600
H405        H  0.58757050  0.29501167  0.20985293     0.18600
F406        F  0.64715142  0.24449938  0.21609329    -0.19100
C407        C  0.70976067  0.69937275  0.21595802    -0.20600
C408        C  0.74704267  0.69849497  0.23879791    -0.08600
C409        C  0.75942439  0.66143683  0.25774355     0.30300
C410        C  0.73450447  0.62699003  0.25547821    -0.20600
C411        C  0.69597163  0.62806616  0.23490039    -0.08600
C412        C  0.68512503  0.66430687  0.21284374     0.30300
F413        F  0.65115751  0.66582875  0.18765941    -0.19100
H414        H  0.70012427  0.72701099  0.19968064     0.18600
H415        H  0.74613783  0.59918905  0.26972622     0.18600
F416        F  0.79526587  0.65846678  0.27977265    -0.19100
C417        C  0.35506484  0.31758879  0.01224186    -0.20600
C418        C  0.35674438  0.28252926  0.48732975    -0.08600
C419        C  0.39351926  0.27387139  0.46716324     0.30300
C420        C  0.42647265  0.30110356  0.46967479    -0.20600
C421        C  0.42383013  0.33799847  0.49191469    -0.08600
C422        C  0.38853189  0.34404363  0.01590249     0.30300
F423        F  0.38669472  0.37431444  0.04451335    -0.19100
H424        H  0.32808037  0.32393463  0.03010373     0.18600
H425        H  0.45433594  0.29281647  0.45434347     0.18600
F426        F  0.39754664  0.23958469  0.44412574    -0.19100
C427        C  0.71808157  0.37040180  0.96240019    -0.20600
C428        C  0.75414635  0.36985405  0.98719462    -0.08600
C429        C  0.76422046  0.40477467  0.01051569     0.30300
C430        C  0.73824869  0.43876452  0.00990406    -0.20600
C431        C  0.70124999  0.43900658  0.98633791    -0.08600
C432        C  0.69247715  0.40473258  0.46112377     0.30300
F433        F  0.65935591  0.40448276  0.43468769    -0.19100
H434        H  0.71010694  0.34449492  0.44305540     0.18600
H435        H  0.74800236  0.46521404  0.02733597     0.18600
F436        F  0.79884776  0.40595363  0.03470478    -0.19100
C437        C  0.30543668  0.68692282  0.02572224    -0.20600
C438        C  0.26835513  0.68635803  0.50253199    -0.08600
C439        C  0.25858580  0.65119367  0.47949694     0.30300
C440        C  0.28543372  0.61795241  0.47917730    -0.20600
C441        C  0.32333955  0.61869600  0.50113197    -0.08600
C442        C  0.33213971  0.65330705  0.02587453     0.30300
F443        F  0.36624724  0.65451244  0.05085625    -0.19100
H444        H  0.31339202  0.71318164  0.04455227     0.18600
H445        H  0.27560472  0.59123112  0.46224397     0.18600
F446        F  0.22341444  0.64908667  0.45626630    -0.19100
C447        C  0.66993042  0.73548485  0.02225544    -0.20600
C448        C  0.66962545  0.77267644  0.99992041    -0.08600
C449        C  0.63408760  0.78354529  0.97679891     0.30300
C450        C  0.60071977  0.75701177  0.97443987    -0.20600
C451        C  0.60149856  0.71865185  0.99484012    -0.08600
C452        C  0.63590580  0.70941696  0.02092793     0.30300
F453        F  0.63660872  0.67553662  0.04573704    -0.19100
H454        H  0.69631505  0.72694361  0.04153068     0.18600
H455        H  0.57392532  0.76724854  0.45691691     0.18600
F456        F  0.63178027  0.81937979  0.45522108    -0.19100
N457        N  0.79186856  0.96925204  0.46429310    -0.26500
N458        N  0.82654941  0.96739809  0.44412195    -0.34400
C459        C  0.83982682  0.00509109  0.43600856     0.01800
C460        C  0.81235903  0.03281833  0.45149192     0.07800
C461        C  0.78197689  0.00900596  0.46929673    -0.05300
H462        H  0.86876187  0.01164297  0.42182279     0.08500
H463        H  0.75581303  0.01971890  0.48615016     0.09700
Cu464      Cu  0.85930896  0.91475916  0.93533737     0.44200
Cu465      Cu  0.76465546  0.91493451  0.48488520     0.42000
Cu466      Cu  0.83355664  0.82222687  0.98573020     0.43900
N467        N  0.90065383  0.86812780  0.94483827    -0.33900
N468        N  0.89302045  0.83407952  0.96564072    -0.28200
C469        C  0.92853265  0.81335813  0.97140966    -0.04300
C470        C  0.95965623  0.83590168  0.95330137     0.07900
C471        C  0.94047879  0.87020698  0.93676812     0.01700
H472        H  0.93171176  0.78494978  0.98871638     0.09400
H473        H  0.95467625  0.89612133  0.92182989     0.08500
N474        N  0.77025698  0.82170222  0.99539735    -0.35400
N475        N  0.74619076  0.85426336  0.49466448    -0.27600
C476        C  0.70717738  0.84193637  0.49774834    -0.02800
C477        C  0.70619052  0.79973340  0.50052507     0.05800
C478        C  0.74688092  0.78810960  0.99928381     0.03900
H479        H  0.68127650  0.86237241  0.49695897     0.09000
H480        H  0.75847629  0.75725997  0.99884757     0.07900
N481        N  0.06806686  0.80773660  0.96747215    -0.26500
N482        N  0.06993001  0.84318117  0.94767344    -0.34400
C483        C  0.03225706  0.85701396  0.93904938     0.01800
C484        C  0.00442522  0.82929349  0.95411365     0.07800
C485        C  0.02817982  0.79806882  0.97205279    -0.05300
H486        H  0.02581368  0.88632728  0.92456064     0.08500
H487        H  0.01732138  0.77114085  0.98814677     0.09700
Cu488      Cu  0.12246401  0.87585724  0.93941359     0.44200
Cu489      Cu  0.12290118  0.77893357  0.98697822     0.42000
Cu490      Cu  0.21529741  0.84973303  0.98852385     0.43900
N491        N  0.16867471  0.91740671  0.94701966    -0.33900
N492        N  0.20349300  0.90972195  0.96720320    -0.28200
C493        C  0.22443285  0.94519052  0.97083948    -0.04300
C494        C  0.20104848  0.97627783  0.95208334     0.07900
C495        C  0.16614397  0.95708991  0.93739295     0.01700
H496        H  0.25356373  0.94839982  0.98713617     0.09400
H497        H  0.13972202  0.97115806  0.92228258     0.08500
N498        N  0.21651950  0.78594253  0.99780611    -0.35400
N499        N  0.18446657  0.76125362  0.99634673    -0.27600
C500        C  0.19787148  0.72241438  0.99901948    -0.02800
C501        C  0.24019917  0.72224549  0.00241736     0.05800
C502        C  0.25073302  0.76315363  0.00193284     0.03900
H503        H  0.17810046  0.69610322  0.99777460     0.09000
H504        H  0.28132518  0.77544645  0.00227764     0.07900
N505        N  0.95294442  0.24638569  0.47085175    -0.26500
N506        N  0.95079798  0.21022418  0.45328005    -0.34400
C507        C  0.98823498  0.19653866  0.44573762     0.01800
C508        C  0.01639743  0.22516186  0.45890335     0.07800
C509        C  0.99294071  0.25680217  0.47484201    -0.05300
H510        H  0.99428969  0.16704696  0.43241270     0.08500
H511        H  0.00407489  0.28472777  0.48871539     0.09700
Cu512      Cu  0.89829903  0.17748720  0.44380475     0.44200
Cu513      Cu  0.89781227  0.27489821  0.48651056     0.42000
Cu514      Cu  0.80300195  0.20538858  0.47749755     0.43900
N515        N  0.85188081  0.13603273  0.44776811    -0.33900
N516        N  0.81567307  0.14447657  0.46264532    -0.28200
C517        C  0.79446532  0.10917939  0.46593377    -0.04300
C518        C  0.81907659  0.07746839  0.45220369     0.07900
C519        C  0.85501643  0.09606022  0.44096263     0.01700
H520        H  0.76402434  0.10663860  0.47810618     0.09400
H521        H  0.88243818  0.08146360  0.43028076     0.08500
N522        N  0.80346845  0.26919597  0.48436500    -0.35400
N523        N  0.83605439  0.29295299  0.48871533    -0.27600
C524        C  0.82345591  0.33195956  0.49122146    -0.02800
C525        C  0.78119587  0.33323487  0.48791401     0.05800
C526        C  0.76976431  0.29283630  0.48346677     0.03900
H527        H  0.84385379  0.35773046  0.49347828     0.09000
H528        H  0.73900791  0.28137447  0.47959020     0.07900
N529        N  0.23026927  0.08470951  0.95748907    -0.26500
N530        N  0.19214396  0.08645706  0.94346041    -0.34400
C531        C  0.17734119  0.04879472  0.93886074     0.01800
C532        C  0.20726764  0.02106181  0.95074367     0.07800
C533        C  0.24077449  0.04491745  0.96248037    -0.05300
H534        H  0.14621058  0.04227846  0.92920458     0.08500
H535        H  0.27007141  0.03419860  0.97441351     0.09700
Cu536      Cu  0.15913733  0.13940577  0.93762831     0.44200
Cu537      Cu  0.26099664  0.13993328  0.96923530     0.42000
Cu538      Cu  0.19142208  0.23414573  0.97555332     0.43900
N539        N  0.11926313  0.18638382  0.94727339    -0.33900
N540        N  0.12914571  0.22199564  0.96337551    -0.28200
C541        C  0.09416679  0.24309025  0.46975247    -0.04300
C542        C  0.06119680  0.21894453  0.45693141     0.07900
C543        C  0.07879845  0.18351057  0.44290098     0.01700
H544        H  0.09274855  0.27305084  0.48349767     0.09400
H545        H  0.06337534  0.15648400  0.93176326     0.08500
N546        N  0.25589665  0.23344874  0.97927511    -0.35400
N547        N  0.27994033  0.20105440  0.97607030    -0.27600
C548        C  0.31918316  0.21342719  0.97815864    -0.02800
C549        C  0.32030409  0.25536682  0.98328225     0.05800
C550        C  0.27953636  0.26677624  0.98396553     0.03900
H551        H  0.34505724  0.19306956  0.97678132     0.09000
H552        H  0.26781678  0.29740168  0.98692245     0.07900
C553        C  0.56493849  0.68930143  0.49064156     0.30800
C554        C  0.49857194  0.63904682  0.48610349     0.30800
C555        C  0.53375795  0.69762074  0.95323654    -0.05400
C556        C  0.57464141  0.64371096  0.48461372    -0.06200
C557        C  0.53761637  0.68833880  0.52960518    -0.06100
C558        C  0.49879256  0.67235565  0.95222367    -0.05400
C559        C  0.54077328  0.61849715  0.48076285    -0.06200
C560        C  0.50389601  0.66289889  0.52698167    -0.06100
C561        C  0.48447399  0.67071687  0.91107452    -0.31500
N562        N  0.50881682  0.69361211  0.88674192     0.15000
C563        C  0.54000543  0.70796996  0.91113830    -0.31500
H564        H  0.56730824  0.72148222  0.89861236     0.17000
C565        C  0.55542994  0.58072786  0.47041099    -0.30500
N566        N  0.59649862  0.57975441  0.47548552     0.13700
C567        C  0.60880766  0.61891666  0.48165863    -0.30500
C568        C  0.48567272  0.66252060  0.56574429    -0.30800
N569        N  0.50746337  0.68702550  0.59197221     0.14200
H570        H  0.46053835  0.64341721  0.57516215     0.16900
C571        C  0.53973686  0.70227921  0.57067854    -0.30800
H572        H  0.56418581  0.71999529  0.58474125     0.16900
H573        H  0.64031734  0.62824813  0.48494744     0.16900
H574        H  0.46153491  0.64999541  0.89890023     0.17000
H575        H  0.53804749  0.55765337  0.45454129     0.16900
C576        C  0.35253342  0.58179548  0.50066626     0.30800
C577        C  0.40260664  0.51497291  0.50420470     0.30800
C578        C  0.34472878  0.54941766  0.96592092    -0.05400
C579        C  0.39821552  0.59065301  0.49465543    -0.06200
C580        C  0.35265274  0.55631248  0.54198071    -0.06100
C581        C  0.37017039  0.51459708  0.96850729    -0.05400
C582        C  0.42377147  0.55672926  0.49705045    -0.06200
C583        C  0.37774298  0.52209220  0.54322326    -0.06100
C584        C  0.37343919  0.49959455  0.92820420    -0.31500
N585        N  0.35130274  0.52331523  0.90137689     0.15000
C586        C  0.33587096  0.55476195  0.92312504    -0.31500
H587        H  0.32314180  0.58187832  0.90829375     0.17000
C588        C  0.46269416  0.57124898  0.49256053    -0.30500
N589        N  0.46228794  0.61215225  0.48624043     0.13700
C590        C  0.42263343  0.62439806  0.48754759    -0.30500
C591        C  0.37729794  0.50582501  0.58333235    -0.30800
N592        N  0.35260130  0.52930168  0.60663915     0.14200
H593        H  0.39581139  0.48086202  0.59551573     0.16900
C594        C  0.33797275  0.56060517  0.58223418    -0.30800
H595        H  0.31991693  0.58565862  0.59355023     0.16900
H596        H  0.41257039  0.65571080  0.48479860     0.16900
H597        H  0.39489722  0.47673058  0.91827097     0.17000
H598        H  0.48961538  0.55378829  0.49689690     0.16900
C599        C  0.62247558  0.54274923  0.47948211     0.30800
C600        C  0.67261179  0.47623194  0.48573905     0.30800
C601        C  0.65406772  0.54402829  0.51609199    -0.05400
C602        C  0.60118674  0.50097366  0.48704354    -0.06200
C603        C  0.64823811  0.53494949  0.94135896    -0.06100
C604        C  0.67955810  0.50933807  0.52018055    -0.05400
C605        C  0.62686773  0.46728345  0.49087299    -0.06200
C606        C  0.67334740  0.50083131  0.94375025    -0.06100
C607        C  0.68730783  0.50514395  0.56345903    -0.31500
N608        N  0.67141784  0.53722716  0.58411394     0.15000
C609        C  0.64984669  0.56010952  0.55593328    -0.31500
H610        H  0.62804761  0.58318134  0.56456411     0.17000
C611        C  0.60261735  0.43343003  0.49833670    -0.30500
N612        N  0.56283260  0.44531797  0.99862763     0.13700
C613        C  0.56223751  0.48608974  0.49109052    -0.30500
C614        C  0.68786016  0.49531107  0.90342789    -0.30800
N615        N  0.67301061  0.52588006  0.87809510     0.14200
H616        H  0.70589275  0.46995052  0.89278791     0.16900
C617        C  0.64849799  0.55001330  0.90081744    -0.30800
H618        H  0.62987344  0.57458780  0.88795221     0.16900
H619        H  0.53514224  0.50306700  0.98574312     0.16900
H620        H  0.69960758  0.47834999  0.57929141     0.17000
H621        H  0.61294475  0.40227270  0.50201850     0.16900
C622        C  0.46011481  0.36796262  0.99337847     0.30800
C623        C  0.52661696  0.41818486  0.99850198     0.30800
C624        C  0.48816308  0.36840693  0.95473063    -0.05400
C625        C  0.45055116  0.41387850  0.99752590    -0.06200
C626        C  0.49053319  0.35991143  0.53099299    -0.06100
C627        C  0.52210364  0.39373210  0.95781345    -0.05400
C628        C  0.48438231  0.43888302  0.00264760    -0.06200
C629        C  0.52541830  0.38530737  0.53279090    -0.06100
C630        C  0.53958846  0.39575697  0.91869353    -0.31500
N631        N  0.51697129  0.37281222  0.89171740     0.15000
C632        C  0.48474282  0.35731775  0.91271165    -0.31500
H633        H  0.45930615  0.34175811  0.89775385     0.17000
C634        C  0.46959694  0.47660598  0.51313981    -0.30500
N635        N  0.42867810  0.47793148  0.50641853     0.13700
C636        C  0.41655238  0.43912147  0.49796453    -0.30500
C637        C  0.53802838  0.38745216  0.57442007    -0.30800
N638        N  0.51299036  0.36435423  0.59784829     0.14200
H639        H  0.56039415  0.40837187  0.58735475     0.16900
C640        C  0.48321846  0.34882624  0.57246535    -0.30800
H641        H  0.45609415  0.33395949  0.58376107     0.16900
H642        H  0.38530263  0.43022504  0.49151731     0.16900
H643        H  0.56439940  0.41541897  0.90956780     0.17000
H644        H  0.48682422  0.49957332  0.52946290     0.16900
N645        N  0.94389390  0.81086976  0.79555556    -0.26500
N646        N  0.94318398  0.84231552  0.82104700    -0.34400
C647        C  0.98142078  0.85263623  0.83211744     0.01800
C648        C  0.00826814  0.82681874  0.81252110     0.07800
C649        C  0.98331719  0.80028538  0.78962631    -0.05300
H650        H  0.98908051  0.87922693  0.85043913     0.08500
H651        H  0.99310581  0.77687371  0.76834416     0.09700
Cu652      Cu  0.89160740  0.87680886  0.83049689     0.44200
Cu653      Cu  0.88868484  0.79006358  0.76897799     0.42000
Cu654      Cu  0.79722409  0.86045862  0.77471157     0.43900
N655        N  0.84763498  0.92148493  0.82272296    -0.33100
N656        N  0.81307406  0.91742527  0.80093658    -0.28200
C657        C  0.79458836  0.95440537  0.79837873    -0.04300
C658        C  0.81911716  0.98269638  0.81944852     0.07900
C659        C  0.85225293  0.96036130  0.83433091     0.01700
H660        H  0.76630080  0.96056215  0.78128020     0.09400
H661        H  0.87894557  0.97179338  0.85095883     0.08500
N662        N  0.79530102  0.79850798  0.75670045    -0.35400
N663        N  0.82783693  0.77455835  0.75466826    -0.27600
C664        C  0.81557487  0.73643280  0.74597243    -0.02800
C665        C  0.77337382  0.73551976  0.74254486     0.05800
C666        C  0.76161001  0.77567116  0.74909225     0.03900
H667        H  0.83616021  0.71083953  0.74369867     0.09000
H668        H  0.73066633  0.78693109  0.75070757     0.07900
N669        N  0.79557629  0.09259951  0.81605159    -0.26500
N670        N  0.83214945  0.09195901  0.83434711    -0.34400
C671        C  0.84480463  0.05329908  0.83897122     0.01800
C672        C  0.81496643  0.02763100  0.82296810     0.07800
C673        C  0.78392971  0.05367039  0.80864483    -0.05300
H674        H  0.87469005  0.04472449  0.85116035     0.08500
H675        H  0.75580303  0.04504113  0.79268608     0.09700
Cu676      Cu  0.86719846  0.14321170  0.84540168     0.44200
Cu677      Cu  0.76795936  0.14864122  0.79959238     0.42000
Cu678      Cu  0.83881688  0.23954789  0.80346373     0.43900
N679        N  0.90822846  0.19044583  0.83882634    -0.33900
N680        N  0.89933993  0.22608452  0.82130415    -0.28200
C681        C  0.93456280  0.24677666  0.81554152    -0.04300
C682        C  0.96689889  0.22259163  0.83023446     0.07900
C683        C  0.94865437  0.18736395  0.84481761     0.01700
H684        H  0.93663272  0.27616983  0.80006318     0.09400
H685        H  0.96376484  0.16009106  0.85649177     0.08500
N686        N  0.77601019  0.24155319  0.78909463    -0.35400
N687        N  0.75124226  0.20967319  0.78693030    -0.27600
C688        C  0.71336851  0.22296936  0.77642736    -0.02800
C689        C  0.71401541  0.26508420  0.77196768     0.05800
C690        C  0.75425734  0.27564997  0.78052041     0.03900
H691        H  0.68699296  0.20338784  0.77342126     0.09000
H692        H  0.76693388  0.30604317  0.78034925     0.07900
N693        N  0.22387617  0.96357977  0.80041139    -0.26500
N694        N  0.18942856  0.96263068  0.82111418    -0.34400
C695        C  0.17819381  0.00071489  0.83040256     0.01800
C696        C  0.20654699  0.02766178  0.81451481     0.07800
C697        C  0.23541560  0.00296720  0.79577099    -0.05300
H698        H  0.14987195  0.00826887  0.84530020     0.08500
H699        H  0.26166783  0.01295731  0.77845392     0.09700
Cu700      Cu  0.15429281  0.91082917  0.82777561     0.44200
Cu701      Cu  0.24871904  0.90908720  0.77779901     0.42000
Cu702      Cu  0.17825210  0.81865396  0.77390933     0.43900
N703        N  0.11263872  0.86444264  0.81824145    -0.33900
N704        N  0.11931665  0.83117207  0.79631963    -0.28200
C705        C  0.08341522  0.81102810  0.79153398    -0.04300
C706        C  0.05314873  0.83292212  0.81166727     0.07900
C707        C  0.07321191  0.86630597  0.82823844     0.01700
H708        H  0.07937978  0.78332000  0.77378489     0.09400
H709        H  0.05975322  0.89160390  0.84450032     0.08500
N710        N  0.24130262  0.81718634  0.76069289    -0.35400
N711        N  0.26582623  0.84924408  0.76233055    -0.27600
C712        C  0.30422880  0.83695227  0.75490215    -0.02800
C713        C  0.30464617  0.79514480  0.74814202     0.05800
C714        C  0.26388245  0.78388686  0.75206914     0.03900
H715        H  0.33021025  0.85718017  0.75525256     0.09000
H716        H  0.25162867  0.75338008  0.75069410     0.07900
N717        N  0.07424994  0.24757310  0.80894941    -0.26500
N718        N  0.07700559  0.21154972  0.82754020    -0.34400
C719        C  0.04005183  0.19903415  0.83891065     0.01800
C720        C  0.01164565  0.22820444  0.82694673     0.07800
C721        C  0.03441064  0.25900387  0.80799624    -0.05300
H722        H  0.03421485  0.16953643  0.85291604     0.08500
H723        H  0.02273763  0.28665544  0.79332643     0.09700
Cu724      Cu  0.12881903  0.17644960  0.83019249     0.44200
Cu725      Cu  0.12801020  0.27378505  0.78560354     0.42000
Cu726      Cu  0.21855904  0.19922440  0.77882346     0.43900
N727        N  0.17239944  0.13285064  0.82038498    -0.33900
N728        N  0.20583567  0.13924900  0.79899701    -0.28200
C729        C  0.22492130  0.10292548  0.79424686    -0.04300
C730        C  0.20189230  0.07269303  0.81379502     0.07900
C731        C  0.16908221  0.09323627  0.82997337     0.01700
H732        H  0.25262172  0.09862751  0.77696116     0.09400
H733        H  0.14339007  0.08017642  0.84601073     0.08500
N734        N  0.22075335  0.26330696  0.77192905    -0.35400
N735        N  0.18933719  0.28885990  0.77347497    -0.27600
C736        C  0.20337083  0.32726762  0.76945280    -0.02800
C737        C  0.24544190  0.32633491  0.76584194     0.05800
C738        C  0.25525893  0.28521709  0.76746337     0.03900
H739        H  0.18438460  0.35418203  0.77067690     0.09000
H740        H  0.28543909  0.27207871  0.76576391     0.07900
C741        C  0.62148682  0.52128912  0.73235432     0.30800
C742        C  0.66825589  0.59011207  0.73505007     0.30800
C743        C  0.64523820  0.53009645  0.69262959    -0.05400
C744        C  0.59828583  0.56203610  0.73848302    -0.06200
C745        C  0.65448093  0.52154593  0.76729015    -0.06100
C746        C  0.66864373  0.56552589  0.69335053    -0.05400
C747        C  0.62220345  0.59688692  0.74179177    -0.06200
C748        C  0.67813701  0.55720110  0.76954035    -0.06100
C749        C  0.68183278  0.57144560  0.65246568    -0.31500
N750        N  0.66802521  0.54005641  0.62826335     0.15000
C751        C  0.64533590  0.51484287  0.65232099    -0.31500
H752        H  0.62810947  0.48905264  0.64067134     0.17000
C753        C  0.59571923  0.62963559  0.74589909    -0.30500
N754        N  0.55658557  0.61597631  0.74261331     0.13700
C755        C  0.55857236  0.57559018  0.73445557    -0.30500
C756        C  0.68848918  0.56115000  0.81210198    -0.30800
N757        N  0.67575768  0.52800277  0.83389987     0.14200
H758        H  0.70005882  0.58843381  0.82696815     0.16900
C759        C  0.65372531  0.50448102  0.80723112    -0.30800
H760        H  0.63353340  0.48041052  0.81730851     0.16900
H761        H  0.53380465  0.55860708  0.72062417     0.16900
H762        H  0.69861276  0.59739200  0.64079512     0.17000
H763        H  0.60410804  0.66127545  0.74942791     0.16900
C764        C  0.50259460  0.41872029  0.74078645     0.30800
C765        C  0.57195935  0.37224090  0.74261589     0.30800
C766        C  0.50362978  0.38499988  0.70746323    -0.05400
C767        C  0.54314815  0.44170225  0.73425753    -0.06200
C768        C  0.51115857  0.39572099  0.78180941    -0.06100
C769        C  0.53971149  0.36112159  0.70800560    -0.05400
C770        C  0.57829920  0.41799151  0.73281618    -0.06200
C771        C  0.54670504  0.37259924  0.78343650    -0.06100
C772        C  0.54545169  0.35051089  0.66633282    -0.31500
N773        N  0.51345072  0.36349470  0.64218302     0.15000
C774        C  0.48866470  0.38584353  0.66634214    -0.31500
H775        H  0.46508115  0.40601328  0.65390867     0.17000
C776        C  0.61093763  0.44458666  0.72881413    -0.30500
N777        N  0.59689365  0.48348313  0.73190020     0.13700
C778        C  0.55655131  0.48089480  0.73947599    -0.30500
C779        C  0.55204253  0.36004121  0.82512777    -0.30800
N780        N  0.52014666  0.37418518  0.84752160     0.14200
H781        H  0.57796068  0.34366228  0.83855235     0.16900
C782        C  0.49517863  0.39624388  0.82150695    -0.30800
H783        H  0.46914527  0.41368883  0.83145891     0.16900
H784        H  0.54010583  0.50361377  0.75602576     0.16900
H785        H  0.57336350  0.33883358  0.65347558     0.17000
H786        H  0.64279662  0.43634949  0.72692319     0.16900
C787        C  0.51888610  0.64099165  0.74259531     0.30800
C788        C  0.44963990  0.68799892  0.73957595     0.30800
C789        C  0.51181499  0.66571599  0.70218250    -0.05400
C790        C  0.47804545  0.61797840  0.74780294    -0.06200
C791        C  0.51695119  0.67308489  0.77699431    -0.06100
C792        C  0.47649381  0.68943212  0.69999357    -0.05400
C793        C  0.44262559  0.64154711  0.74537532    -0.06200
C794        C  0.48086503  0.69651759  0.77645076    -0.06100
C795        C  0.47158596  0.70119614  0.65797087    -0.31500
N796        N  0.50391599  0.68693167  0.63617754     0.15000
C797        C  0.52827594  0.66481440  0.66273984    -0.31500
H798        H  0.55392374  0.64656779  0.65320854     0.17000
C799        C  0.41020758  0.61465360  0.74980513    -0.30500
N800        N  0.42492768  0.57598506  0.75425683     0.13700
C801        C  0.46617371  0.57863855  0.75647817    -0.30500
C802        C  0.47502212  0.70704714  0.81821519    -0.30800
N803        N  0.50723347  0.69396656  0.84233171     0.14200
H804        H  0.44745993  0.71986200  0.83075051     0.16900
C805        C  0.53212494  0.67200727  0.81794673    -0.30800
H806        H  0.55622858  0.65229040  0.83007086     0.16900
H807        H  0.48606803  0.55447330  0.76707050     0.16900
H808        H  0.44540628  0.71665491  0.64389870     0.17000
H809        H  0.37810496  0.62206081  0.74940775     0.16900
C810        C  0.35326805  0.46923369  0.75300012     0.30800
C811        C  0.40026524  0.53810046  0.75335271     0.30800
C812        C  0.35127550  0.49588861  0.79261250    -0.05400
C813        C  0.39962841  0.46193911  0.74979981    -0.06200
C814        C  0.34512030  0.50029059  0.71602237    -0.06100
C815        C  0.37511678  0.53099993  0.79259525    -0.05400
C816        C  0.42321160  0.49710239  0.74822940    -0.06200
C817        C  0.36835273  0.53641853  0.71763542    -0.06100
C818        C  0.37579841  0.54626934  0.83287920    -0.31500
N819        N  0.35308657  0.52135033  0.85721557     0.15000
C820        C  0.33877792  0.49004342  0.83351682    -0.31500
H821        H  0.32285560  0.46378878  0.84575191     0.17000
C822        C  0.46165367  0.48467542  0.73784027    -0.30500
N823        N  0.46455975  0.44344628  0.74049939     0.13700
C824        C  0.42609186  0.42913916  0.74618959    -0.30500
C825        C  0.37058613  0.55193567  0.67726721    -0.30800
N826        N  0.35024924  0.52692706  0.65081422     0.14200
H827        H  0.39043210  0.57625855  0.66708718     0.16900
C828        C  0.33704114  0.49431726  0.67321359    -0.30800
H829        H  0.32586950  0.46651694  0.65907494     0.16900
H830        H  0.41818164  0.39720118  0.74737273     0.16900
H831        H  0.39410399  0.57135445  0.84445113     0.17000
H832        H  0.48386965  0.50418967  0.72414308     0.16900
C833        C  0.33710675  0.39723029  0.77959081    -0.20600
C834        C  0.32537493  0.43145426  0.75491368    -0.08600
C835        C  0.28575126  0.43105547  0.73610482     0.30300
C836        C  0.26060932  0.39673193  0.73944806    -0.20600
C837        C  0.27341767  0.36198145  0.76214688    -0.08600
C838        C  0.31197644  0.36269737  0.78256335     0.30300
F839        F  0.32465019  0.33084550  0.80710532    -0.19100
H840        H  0.36565774  0.39737507  0.79734508     0.18600
H841        H  0.23064738  0.39752035  0.72436907     0.18600
F842        F  0.26978078  0.46440747  0.71635486    -0.19100
C843        C  0.38058933  0.78266007  0.75384761    -0.20600
C844        C  0.34149062  0.76844455  0.74229528    -0.08600
C845        C  0.33869330  0.72904269  0.72508825     0.30300
C846        C  0.37360880  0.70415938  0.72214399    -0.20600
C847        C  0.41211021  0.71688611  0.73777340    -0.08600
C848        C  0.41528457  0.75780869  0.75102344     0.30300
F849        F  0.45205025  0.77434594  0.76120048    -0.19100
H850        H  0.38460243  0.81312284  0.76586988     0.18600
H851        H  0.37031802  0.67508818  0.70693333     0.18600
F852        F  0.30247435  0.71465815  0.71012497    -0.19100
C853        C  0.67707833  0.33140011  0.78125974    -0.20600
C854        C  0.67897610  0.29297054  0.76235480    -0.08600
C855        C  0.64642793  0.28104588  0.73566681     0.30300
C856        C  0.61265681  0.30671077  0.72868175    -0.20600
C857        C  0.61046585  0.34544203  0.74742343    -0.08600
C858        C  0.64310783  0.35694943  0.77463881     0.30300
F859        F  0.64152502  0.39219752  0.79647464    -0.19100
H860        H  0.70128705  0.34109846  0.80264538     0.18600
H861        H  0.58758639  0.29502764  0.70983538     0.18600
F862        F  0.64717700  0.24452759  0.71605662    -0.19100
C863        C  0.70976736  0.69937971  0.71598238    -0.20600
C864        C  0.74705695  0.69849208  0.73880811    -0.08600
C865        C  0.75944475  0.66142540  0.75773198     0.30300
C866        C  0.73452007  0.62698183  0.75546563    -0.20600
C867        C  0.69597938  0.62806872  0.73490443    -0.08600
C868        C  0.68512924  0.66431647  0.71286292     0.30300
F869        F  0.65115647  0.66584807  0.68768712    -0.19100
H870        H  0.70012658  0.72702412  0.69971932     0.18600
H871        H  0.74615441  0.59917497  0.76970073     0.18600
F872        F  0.79529631  0.65844304  0.77974125    -0.19100
C873        C  0.35506741  0.31757582  0.51224385    -0.20600
C874        C  0.35673972  0.28254213  0.98732775    -0.08600
C875        C  0.39351301  0.27388376  0.96715849     0.30300
C876        C  0.42646773  0.30111401  0.96966930    -0.20600
C877        C  0.42382839  0.33800794  0.99191089    -0.08600
C878        C  0.38853309  0.34403214  0.51590558     0.30300
F879        F  0.38669407  0.37430251  0.54451669    -0.19100
H880        H  0.32808194  0.32392084  0.53010439     0.18600
H881        H  0.45432989  0.29282556  0.95433681     0.18600
F882        F  0.39753798  0.23959785  0.94411934    -0.19100
C883        C  0.71807862  0.37040711  0.46238485    -0.20600
C884        C  0.75413785  0.36985086  0.48718820    -0.08600
C885        C  0.76420724  0.40476512  0.51052199     0.30300
C886        C  0.73823717  0.43875695  0.50991246    -0.20600
C887        C  0.70124422  0.43900738  0.48633623    -0.08600
C888        C  0.69247875  0.40472587  0.96113580     0.30300
F889        F  0.65935260  0.40446880  0.93470664    -0.19100
H890        H  0.71010668  0.34448410  0.94307995     0.18600
H891        H  0.74798825  0.46520150  0.52735369     0.18600
F892        F  0.79882845  0.40593592  0.53472108    -0.19100
C893        C  0.30543201  0.68692209  0.52570747    -0.20600
C894        C  0.26835764  0.68635636  0.00255043    -0.08600
C895        C  0.25858738  0.65119092  0.97951760     0.30300
C896        C  0.28543781  0.61795242  0.97919360    -0.20600
C897        C  0.32334664  0.61869976  0.00114176    -0.08600
C898        C  0.33213272  0.65330418  0.52586363     0.30300
F899        F  0.36623852  0.65450860  0.55084790    -0.19100
H900        H  0.31338707  0.71318067  0.54453812     0.18600
H901        H  0.27560884  0.59123025  0.96226163     0.18600
F902        F  0.22341289  0.64907997  0.95629276    -0.19100
C903        C  0.66990721  0.73549144  0.52226164    -0.20600
C904        C  0.66960437  0.77267839  0.49991823    -0.08600
C905        C  0.63406934  0.78354278  0.47678995     0.30300
C906        C  0.60070222  0.75700910  0.47443279    -0.20600
C907        C  0.60148012  0.71865244  0.49483945    -0.08600
C908        C  0.63588387  0.70942222  0.52093345     0.30300
F909        F  0.63658474  0.67554435  0.54574630    -0.19100
H910        H  0.69628966  0.72695416  0.54154199     0.18600
H911        H  0.57394121  0.76725380  0.95692829     0.18600
F912        F  0.63179616  0.81938726  0.95523924    -0.19100
loop_ 
_geom_bond_atom_site_label_1 
_geom_bond_atom_site_label_2 
_geom_bond_distance 
_geom_bond_site_symmetry_2 
_ccdc_geom_bond_type 
N1            N2   1.320       .  A
N1            C5   1.357   1_565  A
N1           Cu9   2.101       .  S
N2            C3   1.337   1_565  A
N2         Cu464   2.059       .  S
C3            C4   1.382       .  A
C3            H6   1.081       .  S
C4            C5   1.394       .  A
C4           C62   1.483       .  S
C5            H7   1.082       .  S
Cu8          N11   2.059       .  S
Cu8         N458   2.059       .  S
Cu9          N19   2.105       .  S
Cu10         N12   2.101       .  S
Cu10         N18   2.105       .  S
N11          N12   1.320       .  A
N11          C15   1.338       .  A
N12          C13   1.356       .  A
C13          C14   1.393       .  A
C13          H16   1.082       .  S
C14          C15   1.382       .  A
C14          C28   1.483   1_655  S
C15          H17   1.081       .  S
N18         N475   1.327       .  A
N18          C22   1.351       .  A
N19         N474   1.327       .  A
N19          C20   1.348       .  A
C20          C21   1.388   1_556  A
C20          H23   1.081       .  S
C21         C478   1.388   1_554  A
C21         C448   1.494   1_554  S
C22         C477   1.388       .  A
C22          H24   1.082       .  S
N25          N26   1.319       .  A
N25          C29   1.357       .  A
N25         Cu33   2.108       .  S
N26          C27   1.337       .  A
N26         Cu32   2.052       .  S
C27          C28   1.380       .  A
C27          H30   1.081       .  S
C28          C29   1.396       .  A
C29          H31   1.082       .  S
Cu32         N35   2.052       .  S
Cu33         N43   2.113       .  S
Cu34         N36   2.109       .  S
Cu34         N42   2.113       .  S
N35          N36   1.319       .  A
N35          C39   1.338       .  A
N36          C37   1.358       .  A
C37          C38   1.396       .  A
C37          H40   1.082       .  S
C38          C39   1.381       .  A
C38          C76   1.485   1_565  S
C39          H41   1.081       .  S
N42          N43   1.329       .  A
N42          C46   1.351       .  A
N43          C44   1.350       .  A
C44          C45   1.390       .  A
C44          H47   1.082       .  S
C45          C46   1.388       .  A
C45         C438   1.496       .  S
C46          H48   1.082       .  S
N49          N50   1.318       .  A
N49          C53   1.359       .  A
N49         Cu57   2.107       .  S
N50          C51   1.334       .  A
N50         Cu56   2.049       .  S
C51          C52   1.380   1_655  A
C51          H54   1.081       .  S
C52          C53   1.398   1_455  A
C52          C86   1.486       .  S
C53          H55   1.082   1_655  S
Cu56         N59   2.049       .  S
Cu57         N67   2.112       .  S
Cu58         N60   2.103       .  S
Cu58         N66   2.109       .  S
N59          N60   1.318       .  A
N59          C63   1.337       .  A
N60          C61   1.357       .  A
C61          C62   1.396       .  A
C61          H64   1.082       .  S
C62          C63   1.381       .  A
C63          H65   1.081       .  S
N66          N67   1.329       .  A
N66          C70   1.349       .  A
N67          C68   1.349       .  A
C68          C69   1.388       .  A
C68          H71   1.081       .  S
C69          C70   1.387       .  A
C69         C428   1.493       .  S
C70          H72   1.082       .  S
N73          N74   1.318       .  A
N73          C77   1.358       .  A
N73         Cu81   2.108       .  S
N74          C75   1.338       .  A
N74         Cu80   2.051       .  S
C75          C76   1.381       .  A
C75          H78   1.081       .  S
C76          C77   1.396       .  A
C77          H79   1.082       .  S
Cu80         N83   2.051       .  S
Cu81         N91   2.114       .  S
Cu82         N84   2.109       .  S
Cu82         N90   2.115       .  S
N83          N84   1.319       .  A
N83         C543   1.335       .  A
N84         C541   1.359       .  A
C85         N540   1.359       .  A
C85          C86   1.397       .  A
C85          H88   1.082       .  S
C86          C87   1.380       .  A
C87         N539   1.335       .  A
C87         H545   1.081       .  S
H89         C543   1.081       .  S
N90          N91   1.329       .  A
N90          C94   1.350       .  A
N91          C92   1.350       .  A
C92          C93   1.389       .  A
C92          H95   1.081       .  S
C93          C94   1.389       .  A
C93         C418   1.496       .  S
C94          H96   1.082       .  S
C97         C101   1.544   1_556  S
C97         C100   1.545       .  S
C97         C451   1.543       .  S
C97         C555   1.571       .  S
C98         C104   1.529   1_556  S
C98         C103   1.552       .  S
C98         C558   1.526       .  S
C98         N133   1.483       .  S
C99         C107   1.395       .  A
C99         C102   1.416       .  A
C99         C553   1.571       .  S
C100        C111   1.389       .  A
C100        C103   1.390       .  A
C101        C115   1.386       .  A
C101        C104   1.388       .  A
C102        C105   1.379       .  A
C102        C554   1.526       .  S
C103        C109   1.375       .  A
C104        C112   1.380       .  A
C105        N106   1.348       .  A
C105        H118   1.082       .  S
N106        C107   1.357       .  A
N106        N347   1.409       .  S
C107        H108   1.082       .  S
C109        N110   1.353       .  A
C109        H119   1.072       .  S
N110        C111   1.363       .  A
N110        C143   1.486       .  S
C111        H117   1.081       .  S
C112        N113   1.356       .  A
C112        H114   1.082       .  S
N113        C115   1.362       .  A
N113        N340   1.411       .  S
C115        H116   1.082       .  S
C120        C124   1.549       .  S
C120        C123   1.542   1_554  S
C120        C578   1.557   1_554  S
C120        C897   1.544       .  S
C121        C127   1.518       .  S
C121        C126   1.555   1_554  S
C121        C581   1.537   1_554  S
C121        N179   1.486       .  S
C122        C130   1.392       .  A
C122        C125   1.415       .  A
C122        C576   1.557       .  S
C123        C134   1.388       .  A
C123        C126   1.393       .  A
C124        C138   1.384       .  A
C124        C127   1.391       .  A
C125        C128   1.382       .  A
C125        C577   1.537       .  S
C126        C132   1.373       .  A
C127        C135   1.376       .  A
C128        N129   1.347       .  A
C128        H141   1.082       .  S
N129        C130   1.352       .  A
N129        N363   1.407       .  S
C130        H131   1.082       .  S
C132        N133   1.356       .  A
C132        H142   1.058       .  S
N133        C134   1.362       .  A
C134        H140   1.082       .  S
C135        N136   1.355       .  A
C135        H137   1.082       .  S
N136        C138   1.361       .  A
N136        N370   1.408       .  S
C138        H139   1.082       .  S
C143        C145   1.540   1_556  S
C143        C146   1.559       .  S
C143        C603   1.515       .  S
C144        C148   1.563   1_556  S
C144        C149   1.541       .  S
C144        C431   1.540       .  S
C144        C606   1.552       .  S
C145        C153   1.385       .  A
C145        C148   1.415       .  A
C146        C157   1.377       .  A
C146        C149   1.392       .  A
C147        C161   1.374       .  A
C147        C150   1.390       .  A
C147        C599   1.515       .  S
C148        C151   1.397       .  A
C149        C155   1.389       .  A
C150        C158   1.389       .  A
C150        C600   1.552       .  S
C151        N152   1.356       .  A
C151        H164   1.082       .  S
N152        C153   1.350       .  A
N152        N294   1.412       .  S
C153        H154   1.082       .  S
C155        N612   1.362       .  A
C155        H165   1.082   1_556  S
N156        C611   1.362       .  A
N156        C613   1.358       .  A
N156        C167   1.486       .  S
C157        N612   1.358       .  A
C157        H619   1.058       .  S
C158        N159   1.362       .  A
C158        H160   1.082       .  S
N159        C161   1.353       .  A
N159        N301   1.409       .  S
C161        H162   1.082       .  S
H163        C613   1.058       .  S
C166        C168   1.550       .  S
C166        C169   1.547       .  S
C166        C421   1.545       .  S
C166        C626   1.558       .  S
C167        C171   1.532       .  S
C167        C172   1.551       .  S
C167        C629   1.527       .  S
C168        C176   1.388       .  A
C168        C171   1.393       .  A
C169        C172   1.389       .  A
C169        C636   1.389       .  A
C170        C184   1.389       .  A
C170        C173   1.417       .  A
C170        C622   1.558   1_554  S
C171        C174   1.381       .  A
C172        C634   1.377       .  A
C173        C181   1.378       .  A
C173        C623   1.527   1_554  S
C174        N175   1.355       .  A
C174        H187   1.082       .  S
N175        C176   1.359       .  A
N175        N324   1.409       .  S
C176        H177   1.082       .  S
C178        N179   1.354       .  A
C178        C628   1.377       .  A
C178        H188   1.073       .  S
N179        C180   1.363   1_554  A
C180        C625   1.389       .  A
C180        H186   1.082       .  S
C181        N182   1.350       .  A
C181        H183   1.083       .  S
N182        C184   1.355       .  A
N182        N317   1.407       .  S
C184        H185   1.082       .  S
N189        N190   1.319       .  A
N189        C193   1.356       .  A
N189       Cu197   2.098       .  S
N190        C191   1.339       .  A
N190       Cu196   2.063       .  S
C191        C192   1.384   1_655  A
C191        H194   1.081       .  S
C192        C193   1.394   1_455  A
C192        C250   1.486       .  S
C193        H195   1.082       .  S
Cu196       N199   2.065       .  S
Cu197       N207   2.101       .  S
Cu198       N200   2.116       .  S
Cu198       N206   2.119       .  S
N199        N200   1.322       .  A
N199        C203   1.340       .  A
N200        C201   1.357       .  A
C201        C202   1.396       .  A
C201        H204   1.082       .  S
C202        C203   1.382       .  A
C202        C216   1.487   1_565  S
C203        H205   1.081       .  S
N206        N207   1.328       .  A
N206        C210   1.355       .  A
N207        C208   1.345       .  A
C208        C209   1.386       .  A
C208        H211   1.081       .  S
C209        C210   1.392       .  A
C209        C408   1.496       .  S
C210        H212   1.082       .  S
N213        N214   1.321       .  A
N213        C217   1.356       .  A
N213       Cu221   2.106       .  S
N214        C215   1.341       .  A
N214       Cu220   2.068       .  S
C215        C216   1.384       .  A
C215        H218   1.081       .  S
C216        C217   1.394       .  A
C217        H219   1.082       .  S
Cu220       N223   2.067       .  S
Cu221       N231   2.109       .  S
Cu222       N224   2.097       .  S
Cu222       N230   2.100       .  S
N223        N224   1.320       .  A
N223        C227   1.338       .  A
N224        C225   1.356       .  A
C225        C226   1.393       .  A
C225        H228   1.082       .  S
C226        C227   1.384       .  A
C226        C264   1.485   1_655  S
C227        H229   1.081       .  S
N230        N231   1.327       .  A
N230        C234   1.349       .  A
N231        C232   1.349       .  A
C232        C233   1.389       .  A
C232        H235   1.082       .  S
C233        C234   1.386       .  A
C233        C398   1.492       .  S
C234        H236   1.082       .  S
N237        N238   1.320       .  A
N237        C241   1.356   1_565  A
N237       Cu245   2.105       .  S
N238        C239   1.341   1_565  A
N238       Cu244   2.068       .  S
C239        C240   1.385       .  A
C239        H242   1.081       .  S
C240        C241   1.393       .  A
C240        C274   1.486       .  S
C241        H243   1.082       .  S
Cu244       N247   2.068       .  S
Cu245       N255   2.109       .  S
Cu246       N248   2.116       .  S
Cu246       N254   2.120       .  S
N247        N248   1.322       .  A
N247        C251   1.340       .  A
N248        C249   1.358       .  A
C249        C250   1.395       .  A
C249        H252   1.082       .  S
C250        C251   1.382       .  A
C251        H253   1.081       .  S
N254        N255   1.327       .  A
N254        C258   1.353       .  A
N255        C256   1.348       .  A
C256        C257   1.392       .  A
C256        H259   1.081       .  S
C257        C258   1.395       .  A
C257        C388   1.508       .  S
C258        H260   1.081       .  S
N261        N262   1.319       .  A
N261        C265   1.358       .  A
N261       Cu269   2.109       .  S
N262        C263   1.337       .  A
N262       Cu268   2.051       .  S
C263        C264   1.380       .  A
C263        H266   1.081       .  S
C264        C265   1.398       .  A
C265        H267   1.082       .  S
Cu268       N271   2.052       .  S
Cu269       N279   2.115       .  S
Cu270       N272   2.110       .  S
Cu270       N278   2.115       .  S
N271        N272   1.319       .  A
N271        C275   1.338       .  A
N272        C273   1.358       .  A
C273        C274   1.397       .  A
C273        H276   1.082       .  S
C274        C275   1.381       .  A
C275        H277   1.081       .  S
N278        N279   1.330       .  A
N278        C282   1.351       .  A
N279        C280   1.349       .  A
C280        C281   1.387       .  A
C280        H283   1.082       .  S
C281        C282   1.388       .  A
C281        C381   1.494       .  S
C282        H284   1.082       .  S
C285        C287   1.523       .  S
C285        C289   1.532       .  S
C285        C288   1.554       .  S
C285        N321   1.482       .  S
C286        C290   1.558       .  S
C286        C292   1.559       .  S
C286        C291   1.546       .  S
C286        C411   1.544       .  S
C287        C295   1.379       .  A
C287        C290   1.395       .  A
C288        C299   1.378       .  A
C288        C291   1.392       .  A
C289        C303   1.382       .  A
C289        C292   1.407       .  A
C290        C293   1.389       .  A
C291        C297   1.390       .  A
C292        C300   1.393       .  A
C293        N294   1.364       .  A
C293        H306   1.082       .  S
N294        C295   1.356       .  A
C295        H296   1.082       .  S
C297        N298   1.362       .  A
C297        H307   1.082       .  S
N298        C299   1.356       .  A
N298        C331   1.483       .  S
C299        H305   1.074       .  S
C300        N301   1.356       .  A
C300        H302   1.082       .  S
N301        C303   1.350       .  A
C303        H304   1.083       .  S
C308        C310   1.540       .  S
C308        C312   1.519       .  S
C308        C311   1.547       .  S
C308        N367   1.487       .  S
C309        C313   1.554       .  S
C309        C315   1.554       .  S
C309        C314   1.547       .  S
C309        C401   1.542       .  S
C310        C318   1.384       .  A
C310        C313   1.418       .  A
C311        C322   1.371       .  A
C311        C314   1.392       .  A
C312        C326   1.376       .  A
C312        C315   1.390       .  A
C313        C316   1.388       .  A
C314        C320   1.390       .  A
C315        C323   1.389       .  A
C316        N317   1.351       .  A
C316        H329   1.082       .  S
N317        C318   1.351       .  A
C318        H319   1.082       .  S
C320        N321   1.362       .  A
C320        H330   1.082       .  S
N321        C322   1.353       .  A
C322        H328   1.069       .  S
C323        N324   1.362       .  A
C323        H325   1.082       .  S
N324        C326   1.354       .  A
C326        H327   1.082       .  S
C331        C333   1.524       .  S
C331        C335   1.528       .  S
C331        C334   1.550       .  S
C332        C336   1.551       .  S
C332        C338   1.565       .  S
C332        C337   1.553       .  S
C332        C391   1.552       .  S
C333        C341   1.375       .  A
C333        C336   1.395       .  A
C334        C345   1.377       .  A
C334        C337   1.395       .  A
C335        C349   1.381       .  A
C335        C338   1.410       .  A
C336        C339   1.391       .  A
C337        C343   1.392       .  A
C338        C346   1.391       .  A
C339        N340   1.364       .  A
C339        H352   1.082       .  S
N340        C341   1.353       .  A
C341        H342   1.082       .  S
C343        N344   1.363       .  A
C343        H353   1.080       .  S
N344        C345   1.356       .  A
N344        C355   1.485       .  S
C345        H351   1.073       .  S
C346        N347   1.357       .  A
C346        H348   1.082       .  S
N347        C349   1.351       .  A
C349        H350   1.082       .  S
C354        C356   1.542       .  S
C354        C358   1.565       .  S
C354        C357   1.544       .  S
C354        C378   1.544       .  S
C355        C359   1.526       .  S
C355        C361   1.527       .  S
C355        C360   1.553       .  S
C356        C364   1.382       .  A
C356        C359   1.394       .  A
C357        C368   1.389       .  A
C357        C360   1.392       .  A
C358        C372   1.394       .  A
C358        C361   1.412       .  A
C359        C362   1.378       .  A
C360        C366   1.373       .  A
C361        C369   1.378       .  A
C362        N363   1.355       .  A
C362        H375   1.082       .  S
N363        C364   1.358       .  A
C364        H365   1.082       .  S
C366        N367   1.359       .  A
C366        H376   1.068       .  S
N367        C368   1.362       .  A
C368        H374   1.081       .  S
C369        N370   1.347       .  A
C369        H371   1.083       .  S
N370        C372   1.357       .  A
C372        H373   1.082       .  S
C377        C378   1.411       .  A
C377        C382   1.407       .  A
C377        H384   1.082       .  S
C378        C379   1.418       .  A
C379        C380   1.402       .  A
C379        F386   1.355       .  S
C380        C381   1.402       .  A
C380        H385   1.083       .  S
C381        C382   1.408       .  A
C382        F383   1.357       .  S
C387        C388   1.407       .  A
C387        C392   1.404       .  A
C387        H394   1.081       .  S
C388        C389   1.412       .  A
C389        C390   1.411       .  A
C389        F396   1.356       .  S
C390        C391   1.411       .  A
C390        H395   1.079       .  S
C391        C392   1.416       .  A
C392        F393   1.357       .  S
C397        C398   1.405       .  A
C397        C402   1.404       .  A
C397        H404   1.083       .  S
C398        C399   1.406       .  A
C399        C400   1.403       .  A
C399        F406   1.357       .  S
C400        C401   1.412       .  A
C400        H405   1.079       .  S
C401        C402   1.414       .  A
C402        F403   1.357       .  S
C407        C408   1.407       .  A
C407        C412   1.411       .  A
C407        H414   1.083       .  S
C408        C409   1.407       .  A
C409        C410   1.398       .  A
C409        F416   1.357       .  S
C410        C411   1.409       .  A
C410        H415   1.080       .  S
C411        C412   1.416       .  A
C412        F413   1.357       .  S
C417        C422   1.404       .  A
C417        C874   1.405   1_554  A
C417        H424   1.083       .  S
C418        C419   1.408       .  A
C418        C873   1.405       .  A
C419        C420   1.405       .  A
C419        F426   1.357       .  S
C420        C421   1.412       .  A
C420        H425   1.081       .  S
C421        C878   1.415       .  A
C422        C877   1.415   1_554  A
C422        F423   1.355       .  S
C427        C428   1.405       .  A
C427        C888   1.404       .  A
C427        H890   1.083       .  S
C428        C429   1.407   1_556  A
C429        C430   1.403       .  A
C429        F436   1.357       .  S
C430        C431   1.411   1_554  A
C430        H435   1.080       .  S
C431        C888   1.414       .  A
C432        C883   1.404       .  A
C432        C887   1.414       .  A
C432        F433   1.357       .  S
H434        C883   1.083       .  S
C437        C442   1.408       .  A
C437        C894   1.407       .  A
C437        H444   1.083       .  S
C438        C439   1.407       .  A
C438        C893   1.407       .  A
C439        C440   1.402       .  A
C439        F446   1.357       .  S
C440        C441   1.411       .  A
C440        H445   1.079       .  S
C441        C898   1.414       .  A
C441        C576   1.544       .  S
C442        C897   1.414       .  A
C442        F443   1.357       .  S
C447        C448   1.406   1_554  A
C447        C452   1.407       .  A
C447        H454   1.083       .  S
C448        C449   1.407       .  A
C449        C450   1.401       .  A
C449        F912   1.357       .  S
C450        C451   1.411       .  A
C450        H911   1.080       .  S
C451        C452   1.415   1_556  A
C452        F453   1.357       .  S
H455        C906   1.080       .  S
F456        C905   1.357       .  S
N457        N458   1.320       .  A
N457        C461   1.357   1_565  A
N457       Cu465   2.101       .  S
N458        C459   1.337   1_565  A
C459        C460   1.382       .  A
C459        H462   1.081       .  S
C460        C461   1.394       .  A
C460        C518   1.483       .  S
C461        H463   1.082       .  S
Cu464       N467   2.059       .  S
Cu465       N475   2.105       .  S
Cu466       N468   2.101       .  S
Cu466       N474   2.105       .  S
N467        N468   1.320       .  A
N467        C471   1.338       .  A
N468        C469   1.356       .  A
C469        C470   1.393       .  A
C469        H472   1.082       .  S
C470        C471   1.382       .  A
C470        C484   1.483   1_655  S
C471        H473   1.081       .  S
N474        C478   1.351       .  A
N475        C476   1.348       .  A
C476        C477   1.388       .  A
C476        H479   1.081       .  S
C477        C904   1.494       .  S
C478        H480   1.082       .  S
N481        N482   1.319       .  A
N481        C485   1.357       .  A
N481       Cu489   2.108       .  S
N482        C483   1.337       .  A
N482       Cu488   2.052       .  S
C483        C484   1.380       .  A
C483        H486   1.081       .  S
C484        C485   1.396       .  A
C485        H487   1.082       .  S
Cu488       N491   2.052       .  S
Cu489       N499   2.113       .  S
Cu490       N492   2.109       .  S
Cu490       N498   2.113       .  S
N491        N492   1.319       .  A
N491        C495   1.338       .  A
N492        C493   1.358       .  A
C493        C494   1.396       .  A
C493        H496   1.082       .  S
C494        C495   1.381       .  A
C494        C532   1.485   1_565  S
C495        H497   1.081       .  S
N498        N499   1.329       .  A
N498        C502   1.351   1_556  A
N499        C500   1.350       .  A
C500        C501   1.390   1_556  A
C500        H503   1.082       .  S
C501        C502   1.388       .  A
C501        C894   1.496       .  S
C502        H504   1.082       .  S
N505        N506   1.318       .  A
N505        C509   1.359       .  A
N505       Cu513   2.107       .  S
N506        C507   1.334       .  A
N506       Cu512   2.049       .  S
C507        C508   1.380   1_655  A
C507        H510   1.081       .  S
C508        C509   1.398   1_455  A
C508        C542   1.486       .  S
C509        H511   1.082   1_655  S
Cu512       N515   2.049       .  S
Cu513       N523   2.112       .  S
Cu514       N516   2.103       .  S
Cu514       N522   2.109       .  S
N515        N516   1.318       .  A
N515        C519   1.337       .  A
N516        C517   1.357       .  A
C517        C518   1.396       .  A
C517        H520   1.082       .  S
C518        C519   1.381       .  A
C519        H521   1.081       .  S
N522        N523   1.329       .  A
N522        C526   1.349       .  A
N523        C524   1.349       .  A
C524        C525   1.388       .  A
C524        H527   1.081       .  S
C525        C526   1.387       .  A
C525        C884   1.493       .  S
C526        H528   1.082       .  S
N529        N530   1.318       .  A
N529        C533   1.358       .  A
N529       Cu537   2.108       .  S
N530        C531   1.338       .  A
N530       Cu536   2.051       .  S
C531        C532   1.381       .  A
C531        H534   1.081       .  S
C532        C533   1.396       .  A
C533        H535   1.082       .  S
Cu536       N539   2.051       .  S
Cu537       N547   2.114       .  S
Cu538       N540   2.109       .  S
Cu538       N546   2.115       .  S
N539        N540   1.319       .  A
C541        C542   1.397       .  A
C541        H544   1.082       .  S
C542        C543   1.381       .  A
N546        N547   1.329       .  A
N546        C550   1.350       .  A
N547        C548   1.350       .  A
C548        C549   1.389       .  A
C548        H551   1.081       .  S
C549        C550   1.389       .  A
C549        C874   1.496       .  S
C550        H552   1.082       .  S
C553        C557   1.544       .  S
C553        C556   1.545       .  S
C553        C907   1.543       .  S
C554        C560   1.529       .  S
C554        C559   1.552       .  S
C554        N589   1.483       .  S
C555        C563   1.395       .  A
C555        C558   1.416       .  A
C556        C567   1.389       .  A
C556        C559   1.390       .  A
C557        C571   1.386       .  A
C557        C560   1.388       .  A
C558        C561   1.379       .  A
C559        C565   1.375       .  A
C560        C568   1.380       .  A
C561        N562   1.348       .  A
C561        H574   1.082       .  S
N562        C563   1.357       .  A
N562        N803   1.409       .  S
C563        H564   1.082       .  S
C565        N566   1.353       .  A
C565        H575   1.072       .  S
N566        C567   1.363       .  A
N566        C599   1.486       .  S
C567        H573   1.081       .  S
C568        N569   1.356       .  A
C568        H570   1.082       .  S
N569        C571   1.362       .  A
N569        N796   1.411       .  S
C571        H572   1.082       .  S
C576        C580   1.549       .  S
C576        C579   1.542       .  S
C577        C583   1.518       .  S
C577        C582   1.555       .  S
C577        N635   1.486       .  S
C578        C586   1.392       .  A
C578        C581   1.415       .  A
C579        C590   1.388       .  A
C579        C582   1.393       .  A
C580        C594   1.384       .  A
C580        C583   1.391       .  A
C581        C584   1.382       .  A
C582        C588   1.373       .  A
C583        C591   1.376       .  A
C584        N585   1.347       .  A
C584        H597   1.082       .  S
N585        C586   1.352       .  A
N585        N819   1.407       .  S
C586        H587   1.082       .  S
C588        N589   1.356       .  A
C588        H598   1.058       .  S
N589        C590   1.362       .  A
C590        H596   1.082       .  S
C591        N592   1.355       .  A
C591        H593   1.082       .  S
N592        C594   1.361       .  A
N592        N826   1.408       .  S
C594        H595   1.082       .  S
C599        C601   1.540       .  S
C599        C602   1.559       .  S
C600        C604   1.563       .  S
C600        C605   1.541       .  S
C600        C887   1.540       .  S
C601        C609   1.385       .  A
C601        C604   1.415       .  A
C602        C613   1.377       .  A
C602        C605   1.392       .  A
C603        C617   1.374       .  A
C603        C606   1.390       .  A
C604        C607   1.397       .  A
C605        C611   1.389       .  A
C606        C614   1.389       .  A
C607        N608   1.356       .  A
C607        H620   1.082       .  S
N608        C609   1.350       .  A
N608        N750   1.412       .  S
C609        H610   1.082       .  S
C611        H621   1.082       .  S
N612        C623   1.486       .  S
C614        N615   1.362       .  A
C614        H616   1.082       .  S
N615        C617   1.353       .  A
N615        N757   1.409       .  S
C617        H618   1.082       .  S
C622        C624   1.550       .  S
C622        C625   1.547       .  S
C622        C877   1.545       .  S
C623        C627   1.532       .  S
C623        C628   1.551   1_556  S
C624        C632   1.388       .  A
C624        C627   1.393       .  A
C625        C628   1.389   1_556  A
C626        C640   1.389       .  A
C626        C629   1.417       .  A
C627        C630   1.381       .  A
C629        C637   1.378       .  A
C630        N631   1.355       .  A
C630        H643   1.082       .  S
N631        C632   1.359       .  A
N631        N780   1.409       .  S
C632        H633   1.082       .  S
C634        N635   1.354       .  A
C634        H644   1.073       .  S
N635        C636   1.363       .  A
C636        H642   1.082       .  S
C637        N638   1.350       .  A
C637        H639   1.083       .  S
N638        C640   1.355       .  A
N638        N773   1.407       .  S
C640        H641   1.082       .  S
N645        N646   1.319       .  A
N645        C649   1.356       .  A
N645       Cu653   2.098       .  S
N646        C647   1.339       .  A
N646       Cu652   2.063       .  S
C647        C648   1.384   1_655  A
C647        H650   1.081       .  S
C648        C649   1.394   1_455  A
C648        C706   1.486       .  S
C649        H651   1.082       .  S
Cu652       N655   2.065       .  S
Cu653       N663   2.101       .  S
Cu654       N656   2.116       .  S
Cu654       N662   2.119       .  S
N655        N656   1.322       .  A
N655        C659   1.340       .  A
N656        C657   1.357       .  A
C657        C658   1.396       .  A
C657        H660   1.082       .  S
C658        C659   1.382       .  A
C658        C672   1.487   1_565  S
C659        H661   1.081       .  S
N662        N663   1.328       .  A
N662        C666   1.355       .  A
N663        C664   1.345       .  A
C664        C665   1.386       .  A
C664        H667   1.081       .  S
C665        C666   1.392       .  A
C665        C864   1.496       .  S
C666        H668   1.082       .  S
N669        N670   1.321       .  A
N669        C673   1.356       .  A
N669       Cu677   2.106       .  S
N670        C671   1.341       .  A
N670       Cu676   2.068       .  S
C671        C672   1.384       .  A
C671        H674   1.081       .  S
C672        C673   1.394       .  A
C673        H675   1.082       .  S
Cu676       N679   2.067       .  S
Cu677       N687   2.109       .  S
Cu678       N680   2.097       .  S
Cu678       N686   2.100       .  S
N679        N680   1.320       .  A
N679        C683   1.338       .  A
N680        C681   1.356       .  A
C681        C682   1.393       .  A
C681        H684   1.082       .  S
C682        C683   1.384       .  A
C682        C720   1.485   1_655  S
C683        H685   1.081       .  S
N686        N687   1.327       .  A
N686        C690   1.349       .  A
N687        C688   1.349       .  A
C688        C689   1.389       .  A
C688        H691   1.082       .  S
C689        C690   1.386       .  A
C689        C854   1.492       .  S
C690        H692   1.082       .  S
N693        N694   1.320       .  A
N693        C697   1.356   1_565  A
N693       Cu701   2.105       .  S
N694        C695   1.341   1_565  A
N694       Cu700   2.068       .  S
C695        C696   1.385       .  A
C695        H698   1.081       .  S
C696        C697   1.393       .  A
C696        C730   1.486       .  S
C697        H699   1.082       .  S
Cu700       N703   2.068       .  S
Cu701       N711   2.109       .  S
Cu702       N704   2.116       .  S
Cu702       N710   2.120       .  S
N703        N704   1.322       .  A
N703        C707   1.340       .  A
N704        C705   1.358       .  A
C705        C706   1.395       .  A
C705        H708   1.082       .  S
C706        C707   1.382       .  A
C707        H709   1.081       .  S
N710        N711   1.326       .  A
N710        C714   1.353       .  A
N711        C712   1.348       .  A
C712        C713   1.392       .  A
C712        H715   1.081       .  S
C713        C714   1.395       .  A
C713        C844   1.508       .  S
C714        H716   1.081       .  S
N717        N718   1.319       .  A
N717        C721   1.358       .  A
N717       Cu725   2.110       .  S
N718        C719   1.337       .  A
N718       Cu724   2.051       .  S
C719        C720   1.380       .  A
C719        H722   1.081       .  S
C720        C721   1.398       .  A
C721        H723   1.082       .  S
Cu724       N727   2.052       .  S
Cu725       N735   2.115       .  S
Cu726       N728   2.110       .  S
Cu726       N734   2.115       .  S
N727        N728   1.319       .  A
N727        C731   1.338       .  A
N728        C729   1.358       .  A
C729        C730   1.397       .  A
C729        H732   1.082       .  S
C730        C731   1.381       .  A
C731        H733   1.081       .  S
N734        N735   1.330       .  A
N734        C738   1.351       .  A
N735        C736   1.349       .  A
C736        C737   1.387       .  A
C736        H739   1.082       .  S
C737        C738   1.388       .  A
C737        C837   1.494       .  S
C738        H740   1.082       .  S
C741        C743   1.523       .  S
C741        C745   1.532       .  S
C741        C744   1.554       .  S
C741        N777   1.482       .  S
C742        C746   1.558       .  S
C742        C748   1.559       .  S
C742        C747   1.546       .  S
C742        C867   1.544       .  S
C743        C751   1.379       .  A
C743        C746   1.395       .  A
C744        C755   1.378       .  A
C744        C747   1.392       .  A
C745        C759   1.382       .  A
C745        C748   1.407       .  A
C746        C749   1.389       .  A
C747        C753   1.390       .  A
C748        C756   1.393       .  A
C749        N750   1.364       .  A
C749        H762   1.082       .  S
N750        C751   1.356       .  A
C751        H752   1.082       .  S
C753        N754   1.362       .  A
C753        H763   1.082       .  S
N754        C755   1.356       .  A
N754        C787   1.483       .  S
C755        H761   1.074       .  S
C756        N757   1.356       .  A
C756        H758   1.082       .  S
N757        C759   1.350       .  A
C759        H760   1.083       .  S
C764        C766   1.540       .  S
C764        C768   1.519       .  S
C764        C767   1.547       .  S
C764        N823   1.487       .  S
C765        C769   1.554       .  S
C765        C771   1.554       .  S
C765        C770   1.547       .  S
C765        C857   1.542       .  S
C766        C774   1.384       .  A
C766        C769   1.418       .  A
C767        C778   1.371       .  A
C767        C770   1.392       .  A
C768        C782   1.376       .  A
C768        C771   1.390       .  A
C769        C772   1.388       .  A
C770        C776   1.390       .  A
C771        C779   1.389       .  A
C772        N773   1.351       .  A
C772        H785   1.082       .  S
N773        C774   1.351       .  A
C774        H775   1.082       .  S
C776        N777   1.362       .  A
C776        H786   1.082       .  S
N777        C778   1.353       .  A
C778        H784   1.069       .  S
C779        N780   1.362       .  A
C779        H781   1.082       .  S
N780        C782   1.354       .  A
C782        H783   1.082       .  S
C787        C789   1.524       .  S
C787        C791   1.528       .  S
C787        C790   1.550       .  S
C788        C792   1.551       .  S
C788        C794   1.565       .  S
C788        C793   1.553       .  S
C788        C847   1.552       .  S
C789        C797   1.375       .  A
C789        C792   1.395       .  A
C790        C801   1.377       .  A
C790        C793   1.395       .  A
C791        C805   1.381       .  A
C791        C794   1.410       .  A
C792        C795   1.391       .  A
C793        C799   1.392       .  A
C794        C802   1.391       .  A
C795        N796   1.364       .  A
C795        H808   1.082       .  S
N796        C797   1.353       .  A
C797        H798   1.082       .  S
C799        N800   1.363       .  A
C799        H809   1.080       .  S
N800        C801   1.356       .  A
N800        C811   1.485       .  S
C801        H807   1.073       .  S
C802        N803   1.357       .  A
C802        H804   1.082       .  S
N803        C805   1.351       .  A
C805        H806   1.082       .  S
C810        C812   1.542       .  S
C810        C814   1.565       .  S
C810        C813   1.544       .  S
C810        C834   1.544       .  S
C811        C815   1.526       .  S
C811        C817   1.527       .  S
C811        C816   1.553       .  S
C812        C820   1.382       .  A
C812        C815   1.394       .  A
C813        C824   1.389       .  A
C813        C816   1.392       .  A
C814        C828   1.394       .  A
C814        C817   1.412       .  A
C815        C818   1.378       .  A
C816        C822   1.373       .  A
C817        C825   1.378       .  A
C818        N819   1.355       .  A
C818        H831   1.082       .  S
N819        C820   1.358       .  A
C820        H821   1.082       .  S
C822        N823   1.359       .  A
C822        H832   1.068       .  S
N823        C824   1.362       .  A
C824        H830   1.081       .  S
C825        N826   1.347       .  A
C825        H827   1.083       .  S
N826        C828   1.357       .  A
C828        H829   1.082       .  S
C833        C834   1.411       .  A
C833        C838   1.407       .  A
C833        H840   1.082       .  S
C834        C835   1.418       .  A
C835        C836   1.402       .  A
C835        F842   1.355       .  S
C836        C837   1.402       .  A
C836        H841   1.083       .  S
C837        C838   1.408       .  A
C838        F839   1.357       .  S
C843        C844   1.407       .  A
C843        C848   1.404       .  A
C843        H850   1.081       .  S
C844        C845   1.412       .  A
C845        C846   1.411       .  A
C845        F852   1.356       .  S
C846        C847   1.411       .  A
C846        H851   1.079       .  S
C847        C848   1.416       .  A
C848        F849   1.357       .  S
C853        C854   1.405       .  A
C853        C858   1.404       .  A
C853        H860   1.083       .  S
C854        C855   1.406       .  A
C855        C856   1.403       .  A
C855        F862   1.357       .  S
C856        C857   1.412       .  A
C856        H861   1.079       .  S
C857        C858   1.414       .  A
C858        F859   1.357       .  S
C863        C864   1.407       .  A
C863        C868   1.411       .  A
C863        H870   1.083       .  S
C864        C865   1.407       .  A
C865        C866   1.398       .  A
C865        F872   1.357       .  S
C866        C867   1.409       .  A
C866        H871   1.080       .  S
C867        C868   1.416       .  A
C868        F869   1.357       .  S
C873        C878   1.404       .  A
C873        H880   1.083       .  S
C874        C875   1.408       .  A
C875        C876   1.405       .  A
C875        F882   1.357       .  S
C876        C877   1.412       .  A
C876        H881   1.081       .  S
C878        F879   1.355       .  S
C883        C884   1.405       .  A
C884        C885   1.407       .  A
C885        C886   1.403       .  A
C885        F892   1.357       .  S
C886        C887   1.411       .  A
C886        H891   1.080       .  S
C888        F889   1.357       .  S
C893        C898   1.408       .  A
C893        H900   1.083       .  S
C894        C895   1.407   1_554  A
C895        C896   1.402       .  A
C895        F902   1.357       .  S
C896        C897   1.411   1_556  A
C896        H901   1.079       .  S
C898        F899   1.357       .  S
C903        C904   1.406       .  A
C903        C908   1.407       .  A
C903        H910   1.083       .  S
C904        C905   1.407       .  A
C905        C906   1.401       .  A
C906        C907   1.411       .  A
C907        C908   1.415       .  A
C908        F909   1.357       .  S
