geometry optimzed in LAMMPS
_audit_creation_date              2020-12-01 
_audit_creation_method            'lammps2cif' 
_symmetry_space_group_name_H-M    'P1' 
_symmetry_Int_Tables_number       1 
_symmetry_cell_setting            triclinic 
loop_ 
_symmetry_equiv_pos_as_xyz 
  x,y,z 
_cell_length_a                    41.18926968 
_cell_length_b                    41.18890423843372 
_cell_length_c                    31.05710423737293 
_cell_angle_alpha                 89.99918003872803 
_cell_angle_beta                  89.9990585163724 
_cell_angle_gamma                 89.99787105531563 
loop_ 
_atom_site_label 
_atom_site_type_symbol 
_atom_site_fract_x 
_atom_site_fract_y 
_atom_site_fract_z 
_atom_site_charge 
N1          N  0.99769543  0.76961391  0.47787432    -0.01200
C2          C  0.99789758  0.73678260  0.47522907     0.01300
C3          C  0.00528646  0.72309460  0.01457470    -0.21500
C4          C  0.00984397  0.74837794  0.04271697    -0.21700
C5          C  0.00510412  0.77647911  0.01939915     0.01200
H6          H  0.00746085  0.69749529  0.02188911     0.15000
H7          H  0.01621700  0.74648715  0.07644094     0.15100
N8          N  0.99851969  0.23561599  0.02364578    -0.01200
C9          C  0.99879252  0.26844660  0.02615720     0.01300
C10         C  0.99221699  0.28215777  0.48657227    -0.21500
C11         C  0.98767032  0.25687991  0.45841751    -0.21700
C12         C  0.99160227  0.22876719  0.48197533     0.01200
H13         H  0.99045860  0.30776862  0.47913372     0.15000
H14         H  0.98172751  0.25878601  0.42455671     0.15100
N15         N  0.73072870  0.00045281  0.47855865    -0.01200
C16         C  0.76355922  0.99998245  0.47604970     0.01300
C17         C  0.77729826  0.00616899  0.01572739    -0.21500
C18         C  0.75204193  0.01067815  0.04393096    -0.21700
C19         C  0.72390966  0.00711367  0.02031341     0.01200
H20         H  0.80291679  0.00775932  0.02318421     0.15000
H21         H  0.75397860  0.01641490  0.07785107     0.15100
N22         N  0.26471080  0.00122965  0.02432460    -0.01200
C23         C  0.23189233  0.00072243  0.02711685     0.01300
C24         C  0.21817949  0.99281469  0.48796528    -0.21500
C25         C  0.24343623  0.98825072  0.45978510    -0.21700
C26         C  0.27154271  0.99350605  0.48289328     0.01200
H27         H  0.19258219  0.99039138  0.48078041     0.15000
H28         H  0.24152576  0.98161583  0.42615176     0.15100
N29         N  0.49762650  0.73524190  0.47794591    -0.01200
C30         C  0.49740226  0.76807137  0.47527796     0.01300
C31         C  0.49016499  0.78177527  0.01466338    -0.21500
C32         C  0.48572637  0.75650332  0.04285655    -0.21700
C33         C  0.49038208  0.72839460  0.01952592     0.01200
H34         H  0.48800773  0.80737703  0.02197077     0.15000
H35         H  0.47947055  0.75840596  0.07661838     0.15100
N36         N  0.49660594  0.26922195  0.02367519    -0.01200
C37         C  0.49629199  0.23639069  0.02617171     0.01300
C38         C  0.50289285  0.22268454  0.48659106    -0.21500
C39         C  0.50749986  0.24796573  0.45845699    -0.21700
C40         C  0.50357601  0.27607592  0.48202107     0.01200
H41         H  0.50463717  0.19707409  0.47914481     0.15000
H42         H  0.51347565  0.24606297  0.42460617     0.15100
N43         N  0.23051992  0.50135319  0.02385411    -0.01200
C44         C  0.26335851  0.50120134  0.02638890     0.01300
C45         C  0.27704809  0.50792498  0.48683401    -0.21500
C46         C  0.25176101  0.51243478  0.45868107    -0.21700
C47         C  0.22365374  0.50833210  0.48219757     0.01200
H48         H  0.30265384  0.50977726  0.47940590     0.15000
H49         H  0.25365691  0.51843937  0.42483849     0.15100
N50         N  0.76451042  0.50205877  0.47803505    -0.01200
C51         C  0.73169027  0.50189433  0.47535092     0.01300
C52         C  0.71795371  0.49455004  0.01468080    -0.21500
C53         C  0.74320796  0.48997726  0.04286179    -0.21700
C54         C  0.77132903  0.49466286  0.01956803     0.01200
H55         H  0.69234554  0.49240637  0.02195510     0.15000
H56         H  0.74128598  0.48362182  0.07658907     0.15100
O57         O  0.47827488  0.51580192  0.17664260    -0.86100
C58         C  0.45908410  0.55945317  0.29109523     0.89900
Mg59       Mg  0.46744297  0.46604699  0.16334696     1.58100
O60         O  0.54141087  0.54421807  0.27276217    -0.85800
O61         O  0.52009613  0.54906735  0.17627648    -0.73200
C62         C  0.52196272  0.39142562  0.33811328     0.95000
O63         O  0.42134038  0.50122483  0.24346696    -0.73000
O64         O  0.50330590  0.38580960  0.30634194    -0.80500
Mg65       Mg  0.44013265  0.54442207  0.20370145     1.58000
C66         C  0.59961603  0.50277655  0.36112282     0.94900
O67         O  0.45588701  0.58757607  0.16137259    -0.78800
H68         H  0.58056900  0.54870397  0.23515457    -0.04100
C69         C  0.49243750  0.47737797  0.34308346     0.89800
O70         O  0.52059825  0.45251260  0.17698138    -0.73300
O71         O  0.47169932  0.55805976  0.25496784    -0.86000
O72         O  0.58115775  0.52737162  0.35666617    -0.78800
C73         C  0.52397314  0.61642048  0.33597841     0.95000
C74         C  0.47339816  0.61297592  0.16385603     0.94900
Mg75       Mg  0.55512818  0.45998837  0.29826408     1.58000
O76         O  0.53943405  0.41684692  0.34059223    -0.78800
O77         O  0.57393383  0.50318579  0.25853807    -0.73000
O78         O  0.51393836  0.61571118  0.29701143    -0.78800
O79         O  0.40382301  0.52990905  0.15282156    -0.80600
O80         O  0.48138151  0.38868221  0.20501145    -0.78900
C81         C  0.56600441  0.53296118  0.25522082     0.89300
O82         O  0.52356550  0.44635255  0.24701508    -0.86000
O83         O  0.51696654  0.48858259  0.32534465    -0.86100
O84         O  0.47518851  0.45527036  0.32577147    -0.73200
Mg85       Mg  0.51644846  0.58069879  0.23748991     1.58000
O86         O  0.53585776  0.59154946  0.35447331    -0.80600
H87         H  0.51032383  0.51706371  0.12827341    -0.04300
O88         O  0.45384517  0.46016513  0.22928476    -0.85800
H89         H  0.41471714  0.45573536  0.26695997    -0.04100
H90         H  0.56141470  0.43808194  0.20819672    -0.04300
C91         C  0.42927123  0.47145141  0.24684354     0.89300
C92         C  0.50283501  0.52697686  0.15894353     0.89900
C93         C  0.53616626  0.44495959  0.21087969     0.89900
H94         H  0.48496658  0.48727699  0.37376907    -0.04300
O95         O  0.47463003  0.55188058  0.32500405    -0.73300
Mg96       Mg  0.47884954  0.42367467  0.26453231     1.58000
H97         H  0.43383836  0.56634378  0.29376017    -0.04300
C98         C  0.39557511  0.50161434  0.14083719     0.94900
O99         O  0.45936021  0.41282432  0.14760302    -0.80500
C100        C  0.47130171  0.38796748  0.16606762     0.94900
O101        O  0.49205590  0.61856749  0.19563473    -0.80500
Mg102      Mg  0.52777230  0.53833362  0.33867931     1.58200
O103        O  0.41402448  0.47701282  0.14535032    -0.78800
O104        O  0.59138932  0.47448625  0.34911901    -0.80500
O105        O  0.51132697  0.02168664  0.17666000    -0.86100
C106        C  0.55489321  0.04090647  0.29115770     0.89900
Mg107      Mg  0.46157418  0.03250899  0.16330199     1.58100
O108        O  0.53968762  0.95858120  0.27279154    -0.85800
O109        O  0.54463532  0.97990260  0.17630028    -0.73200
C110        C  0.38686360  0.97808123  0.33806333     0.95000
O111        O  0.49672586  0.07867738  0.24339622    -0.73000
O112        O  0.38128855  0.99682605  0.30636569    -0.80500
Mg113      Mg  0.53993940  0.05984325  0.20370296     1.58000
C114        C  0.49816986  0.90032885  0.36114717     0.94900
O115        O  0.58310664  0.04405671  0.16140449    -0.78800
H116        H  0.54416202  0.91945202  0.23513003    -0.04100
C117        C  0.47284627  0.00758333  0.34305455     0.89800
O118        O  0.44800840  0.97937669  0.17696454    -0.73300
O119        O  0.55354226  0.02829953  0.25502221    -0.86000
O120        O  0.52277781  0.91877845  0.35671620    -0.78800
C121        C  0.61184893  0.97598205  0.33608883     0.95000
C122        C  0.60851720  0.02656665  0.16397107     0.94900
Mg123      Mg  0.45543100  0.94487947  0.29822944     1.58000
O124        O  0.41226005  0.96056713  0.34049267    -0.78800
O125        O  0.49864500  0.92608798  0.25851725    -0.73000
O126        O  0.61116822  0.98604787  0.29713636    -0.78800
O127        O  0.52545103  0.09611181  0.15278226    -0.80600
O128        O  0.38418256  0.01868135  0.20495023    -0.78900
C129        C  0.52842289  0.93400798  0.25521307     0.89300
O130        O  0.44181616  0.97646157  0.24699608    -0.86000
O131        O  0.48402084  0.98302219  0.32535610    -0.86100
O132        O  0.45077528  0.02486126  0.32570770    -0.73200
Mg133      Mg  0.57620174  0.98355603  0.23757767     1.58000
O134        O  0.58696171  0.96410147  0.35454645    -0.80600
H135        H  0.51265734  0.98966629  0.12826107    -0.04300
O136        O  0.45567592  0.04616221  0.22921497    -0.85800
H137        H  0.45121688  0.08533327  0.26680563    -0.04100
H138        H  0.43351421  0.93859973  0.20821456    -0.04300
C139        C  0.46694886  0.07075538  0.24674017     0.89300
C140        C  0.52253751  0.99714704  0.15895262     0.89900
C141        C  0.44041877  0.96384180  0.21087351     0.89900
H142        H  0.48275045  0.01506298  0.37373284    -0.04300
O143        O  0.54730710  0.02534443  0.32505053    -0.73300
Mg144      Mg  0.41917104  0.02121137  0.26448571     1.58000
H145        H  0.56176388  0.06615603  0.29384440    -0.04300
C146        C  0.49715197  0.10433980  0.14079503     0.94900
O147        O  0.40835132  0.04060323  0.14749358    -0.80500
C148        C  0.38348134  0.02870522  0.16597796     0.94900
O149        O  0.61410467  0.00797622  0.19581983    -0.80500
Mg150      Mg  0.53375946  0.97219226  0.33871675     1.58200
O151        O  0.47256015  0.08588450  0.14529713    -0.78800
O152        O  0.46989635  0.90857484  0.34908717    -0.80500
O153        O  0.01691567  0.98907984  0.17665254    -0.86100
C154        C  0.03612567  0.94544144  0.29108127     0.89900
Mg155      Mg  0.02776244  0.03883625  0.16335543     1.58100
O156        O  0.95380077  0.96060665  0.27271108    -0.85800
O157        O  0.97512629  0.95577786  0.17623477    -0.73200
C158        C  0.97315313  0.11340596  0.33809848     0.95000
O159        O  0.07385236  0.00364840  0.24347545    -0.73000
O160        O  0.99182748  0.11901390  0.30634112    -0.80500
Mg161      Mg  0.05505524  0.96045522  0.20370041     1.58000
C162        C  0.89550599  0.00196451  0.36110956     0.94900
O163        O  0.03933921  0.91731393  0.16133583    -0.78800
H164        H  0.91467685  0.95611736  0.23504494    -0.04100
C165        C  0.00269101  0.02747690  0.34309519     0.89800
O166        O  0.97460235  0.05238304  0.17697329    -0.73300
O167        O  0.02351059  0.94680004  0.25495172    -0.86000
O168        O  0.91402188  0.97741220  0.35664598    -0.78800
C169        C  0.97127826  0.88840543  0.33590672     0.95000
C170        C  0.02186084  0.89189231  0.16379095     0.94900
Mg171      Mg  0.93999653  0.04483310  0.29823951     1.58000
O172        O  0.95566597  0.08799182  0.34057418    -0.78800
O173        O  0.92126088  0.00162689  0.25847877    -0.73000
O174        O  0.98131594  0.88911770  0.29694183    -0.78800
O175        O  0.09131191  0.97495748  0.15284191    -0.80600
O176        O  0.01380848  0.11618030  0.20501705    -0.78900
C177        C  0.92921456  0.97185872  0.25514591     0.89300
O178        O  0.97159690  0.05849815  0.24701174    -0.86000
O179        O  0.97816963  0.01626553  0.32534563    -0.86100
O180        O  0.01995086  0.04957598  0.32578110    -0.73200
Mg181      Mg  0.97878660  0.92413350  0.23743672     1.58000
O182        O  0.95938639  0.91327189  0.35440381    -0.80600
H183        H  0.98488009  0.98782090  0.12826932    -0.04300
O184        O  0.04134251  0.04470298  0.22929725    -0.85800
H185        H  0.08047520  0.04914020  0.26696159    -0.04100
H186        H  0.93377163  0.06680395  0.20816733    -0.04300
C187        C  0.06592002  0.03342141  0.24685125     0.89300
C188        C  0.99236915  0.97789668  0.15893248     0.89900
C189        C  0.95901624  0.05991645  0.21086630     0.89900
H190        H  0.01014981  0.01758574  0.37379029    -0.04300
O191        O  0.02057167  0.95301807  0.32498127    -0.73300
Mg192      Mg  0.01631290  0.08117450  0.26454261     1.58000
H193        H  0.06138006  0.93858441  0.29375375    -0.04300
C194        C  0.09960416  0.00324063  0.14088775     0.94900
O195        O  0.03586106  0.09205609  0.14761639    -0.80500
C196        C  0.02390359  0.11690591  0.16607840     0.94900
O197        O  0.00320319  0.88627043  0.19556214    -0.80500
Mg198      Mg  0.96741561  0.96650109  0.33864088     1.58200
O199        O  0.08119306  0.02787110  0.14539359    -0.78800
O200        O  0.90366861  0.03027258  0.34907573    -0.80500
O201        O  0.98373821  0.48309529  0.17668511    -0.86100
C202        C  0.94011994  0.46393174  0.29119366     0.89900
Mg203      Mg  0.03349561  0.47233816  0.16333874     1.58100
O204        O  0.95536661  0.54625070  0.27274496    -0.85800
O205        O  0.95042663  0.52487642  0.17625071    -0.73200
C206        C  0.10816111  0.52657331  0.33826632     0.95000
O207        O  0.99840486  0.42615587  0.24353531    -0.73000
O208        O  0.11376536  0.50797555  0.30642864    -0.80500
Mg209      Mg  0.95519044  0.44491781  0.20383867     1.58000
C210        C  0.99684249  0.60448923  0.36119713     0.94900
O211        O  0.91200850  0.46053805  0.16158854    -0.78800
H212        H  0.95096779  0.58539437  0.23508820    -0.04100
C213        C  0.02213813  0.49720776  0.34306998     0.89800
O214        O  0.04700604  0.52547971  0.17706228    -0.73300
O215        O  0.94154961  0.47651896  0.25505353    -0.86000
O216        O  0.97221663  0.58608168  0.35664246    -0.78800
C217        C  0.88316862  0.52880457  0.33598817     0.95000
C218        C  0.88658887  0.47801290  0.16403964     0.94900
Mg219      Mg  0.03963348  0.55991226  0.29839636     1.58000
O220        O  0.08276288  0.54408973  0.34077200    -0.78800
O221        O  0.99644406  0.57874957  0.25862175    -0.73000
O222        O  0.88389210  0.51871146  0.29705118    -0.78800
O223        O  0.96970404  0.40861930  0.15299243    -0.80600
O224        O  0.11091459  0.48612915  0.20502441    -0.78900
C225        C  0.96666974  0.57082625  0.25520678     0.89300
O226        O  0.05326365  0.52838251  0.24709198    -0.86000
O227        O  0.01097647  0.52178299  0.32539206    -0.86100
O228        O  0.04423822  0.47995695  0.32573585    -0.73200
Mg229      Mg  0.91886481  0.52123562  0.23751356     1.58000
O230        O  0.90801117  0.54078636  0.35443640    -0.80600
H231        H  0.98239546  0.51506059  0.12822218    -0.04300
O232        O  0.03941417  0.45868368  0.22924713    -0.85800
H233        H  0.04393815  0.41953670  0.26686403    -0.04100
H234        H  0.06147273  0.56626610  0.20831073    -0.04300
C235        C  0.02817832  0.43409039  0.24680716     0.89300
C236        C  0.97251749  0.50761073  0.15892891     0.89900
C237        C  0.05460725  0.54101327  0.21096955     0.89900
H238        H  0.01221072  0.48970082  0.37372389    -0.04300
O239        O  0.94765828  0.47950786  0.32509022    -0.73300
Mg240      Mg  0.07589144  0.48362191  0.26453696     1.58000
H241        H  0.93321895  0.43869063  0.29388438    -0.04300
C242        C  0.99798810  0.40045738  0.14087114     0.94900
O243        O  0.08671594  0.46429589  0.14753096    -0.80500
C244        C  0.11160710  0.47611922  0.16604497     0.94900
O245        O  0.88099719  0.49675449  0.19573281    -0.80500
Mg246      Mg  0.96122779  0.53266070  0.33868980     1.58200
O247        O  0.02255496  0.41895981  0.14527947    -0.78800
O248        O  0.02513933  0.59618579  0.34929650    -0.80500
C249        C  0.80291062  0.49106947  0.03867137    -0.16300
C250        C  0.82508907  0.48658762  0.06325439     0.07800
C251        C  0.84696176  0.48126468  0.09752165     0.09600
C252        C  0.86448619  0.47820491  0.12834691    -0.17100
C253        C  0.78697870  0.50863401  0.44476753    -0.16300
C254        C  0.80684988  0.51429429  0.41692848     0.07800
C255        C  0.83138772  0.52058613  0.38572498     0.09600
C256        C  0.85383484  0.52515347  0.36117538    -0.17100
C257        C  0.71220733  0.50707638  0.43759367    -0.16300
C258        C  0.68922126  0.50907354  0.41375742     0.07800
C259        C  0.65853256  0.50895753  0.39353670     0.09600
C260        C  0.63141060  0.50706421  0.37914664    -0.17100
C261        C  0.19204615  0.51229668  0.46323340    -0.16300
C262        C  0.16981051  0.51708746  0.43881803     0.07800
C263        C  0.14782172  0.52277648  0.40475053     0.09600
C264        C  0.13023202  0.52613305  0.37402474    -0.17100
C265        C  0.20805383  0.49529100  0.05729907    -0.16300
C266        C  0.18812749  0.48998359  0.08519600     0.07800
C267        C  0.16349642  0.48400537  0.11638751     0.09600
C268        C  0.14098523  0.47963457  0.14090279    -0.17500
C269        C  0.36377723  0.49732015  0.12274641    -0.16300
C270        C  0.33666960  0.49529803  0.10828970     0.07800
C271        C  0.30596916  0.49488139  0.08803797     0.09600
C272        C  0.28292778  0.49651526  0.06421565    -0.17100
C273        C  0.49282693  0.13612220  0.12271672    -0.16300
C274        C  0.49071815  0.16321088  0.10824930     0.07800
C275        C  0.49017229  0.19386942  0.08793463     0.09600
C276        C  0.49170103  0.21685913  0.06403182    -0.17100
C277        C  0.52164123  0.36935489  0.37385207    -0.16300
C278        C  0.51835321  0.35180627  0.40461911     0.07800
C279        C  0.51264343  0.32987728  0.43872532     0.09600
C280        C  0.50774085  0.30766718  0.46312568    -0.17100
C281        C  0.47488484  0.35861440  0.14090084    -0.16300
C282        C  0.47931026  0.33614243  0.11634472     0.07800
C283        C  0.48532513  0.31157067  0.08509109     0.09600
C284        C  0.49061956  0.29168164  0.05714769    -0.17100
C285        C  0.50241837  0.86852176  0.37920490    -0.16300
C286        C  0.50428401  0.84138650  0.39359368     0.07800
C287        C  0.50440858  0.81065785  0.41375700     0.09600
C288        C  0.50246753  0.78761211  0.43752229    -0.17100
C289        C  0.47374156  0.63506644  0.12812929    -0.16300
C290        C  0.47693985  0.65263581  0.09736032     0.07800
C291        C  0.48235935  0.67458063  0.06317790     0.09600
C292        C  0.48684676  0.69679354  0.03863405    -0.17100
C293        C  0.52038406  0.64578145  0.36113755    -0.16300
C294        C  0.51588894  0.66826859  0.38565230     0.07800
C295        C  0.50969116  0.69286764  0.41681334     0.09600
C296        C  0.50411248  0.71277562  0.44464047    -0.17100
C297        C  0.13142365  0.00744880  0.12286801    -0.16300
C298        C  0.15858154  0.00910942  0.10851995     0.07800
C299        C  0.18932706  0.00881880  0.08841734     0.09600
C300        C  0.21237019  0.00640816  0.06472848    -0.17100
C301        C  0.36475212  0.97827549  0.37376370    -0.16300
C302        C  0.34721115  0.98121376  0.40460327     0.07800
C303        C  0.32531388  0.98624471  0.43893724     0.09600
C304        C  0.30312850  0.99037681  0.46362947    -0.17100
C305        C  0.28717912  0.00820173  0.05745375    -0.16300
C306        C  0.30707894  0.01406878  0.08518600     0.07800
C307        C  0.33166286  0.02047033  0.11629502     0.09600
C308        C  0.35413653  0.02506621  0.14079815    -0.17100
C309        C  0.86373585  0.99757254  0.37921318    -0.16300
C310        C  0.83666954  0.99532726  0.39372740     0.07800
C311        C  0.80603756  0.99453085  0.41411151     0.09600
C312        C  0.78306750  0.99577604  0.43808269    -0.17100
C313        C  0.63060494  0.02610890  0.12824639    -0.16300
C314        C  0.64818759  0.02262277  0.09754749     0.07800
C315        C  0.67014203  0.01664556  0.06354253     0.09600
C316        C  0.69234397  0.01151892  0.03920375    -0.17100
C317        C  0.70823363  0.99477519  0.44503402    -0.16300
C318        C  0.68830871  0.98967484  0.41707241     0.07800
C319        C  0.66369916  0.98381759  0.38581847     0.09600
C320        C  0.64120732  0.97948983  0.36126396    -0.17100
C321        C  0.97348645  0.13547880  0.37383129    -0.16300
C322        C  0.97681229  0.15303558  0.40458099     0.07800
C323        C  0.98256061  0.17496915  0.43866786     0.09600
C324        C  0.98746820  0.19717850  0.46306543    -0.17100
C325        C  0.02030875  0.14625769  0.14090748    -0.16300
C326        C  0.01586247  0.16871890  0.11633822     0.07800
C327        C  0.00982061  0.19327458  0.08506829     0.09600
C328        C  0.00451191  0.21315547  0.05711752    -0.17100
C329        C  0.00336413  0.28797189  0.06402439    -0.16300
C330        C  0.00490717  0.31095655  0.08793171     0.07800
C331        C  0.00440130  0.34161007  0.10825700     0.09600
C332        C  0.00232042  0.36869261  0.12274798    -0.17100
C333        C  0.00864123  0.80808902  0.03849132    -0.16300
C334        C  0.01309593  0.83030524  0.06304423     0.07800
C335        C  0.01844176  0.85224915  0.09725374     0.09600
C336        C  0.02157006  0.86981074  0.12804658    -0.17100
C337        C  0.97486287  0.85904308  0.36106030    -0.16300
C338        C  0.97934423  0.83655640  0.38557847     0.07800
C339        C  0.98553563  0.81196381  0.41674794     0.09600
C340        C  0.99113999  0.79206649  0.44457801    -0.17100
C341        C  0.99267756  0.71722605  0.43752154    -0.16300
C342        C  0.99065084  0.69417660  0.41377298     0.07800
C343        C  0.99073140  0.66344653  0.39360783     0.09600
C344        C  0.99259048  0.63630821  0.37922386    -0.17100
N345        N  0.99769540  0.76961399  0.97787434    -0.01200
C346        C  0.99789749  0.73678268  0.97522908     0.01300
C347        C  0.00528655  0.72309452  0.51457471    -0.21500
C348        C  0.00984390  0.74837788  0.54271699    -0.21700
C349        C  0.00510403  0.77647905  0.51939915     0.01200
H350        H  0.00746099  0.69749520  0.52188914     0.15000
H351        H  0.01621684  0.74648711  0.57644098     0.15100
N352        N  0.99851957  0.23561598  0.52364581    -0.01200
C353        C  0.99879243  0.26844659  0.52615726     0.01300
C354        C  0.99221704  0.28215769  0.98657221    -0.21500
C355        C  0.98767029  0.25687984  0.95841752    -0.21700
C356        C  0.99160236  0.22876714  0.98197534     0.01200
H357        H  0.99045858  0.30776870  0.97913361     0.15000
H358        H  0.98172732  0.25878589  0.92455672     0.15100
N359        N  0.73072861  0.00045290  0.97855855    -0.01200
C360        C  0.76355915  0.99998254  0.97604961     0.01300
C361        C  0.77729838  0.00616903  0.51572750    -0.21500
C362        C  0.75204200  0.01067819  0.54393112    -0.21700
C363        C  0.72390974  0.00711373  0.52031347     0.01200
H364        H  0.80291666  0.00775943  0.52318424     0.15000
H365        H  0.75397864  0.01641482  0.57785100     0.15100
N366        N  0.26471078  0.00122972  0.52432465    -0.01200
C367        C  0.23189233  0.00072241  0.52711693     0.01300
C368        C  0.21817955  0.99281467  0.98796522    -0.21500
C369        C  0.24343626  0.98825068  0.95978500    -0.21700
C370        C  0.27154276  0.99350597  0.98289324     0.01200
H371        H  0.19258202  0.99039133  0.98078027     0.15000
H372        H  0.24152579  0.98161584  0.92615171     0.15100
N373        N  0.49762653  0.73524188  0.97794595    -0.01200
C374        C  0.49740217  0.76807134  0.97527797     0.01300
C375        C  0.49016512  0.78177529  0.51466336    -0.21500
C376        C  0.48572649  0.75650335  0.54285655    -0.21700
C377        C  0.49038216  0.72839461  0.51952591     0.01200
H378        H  0.48800788  0.80737712  0.52197075     0.15000
H379        H  0.47947068  0.75840604  0.57661836     0.15100
N380        N  0.49660597  0.26922197  0.52367515    -0.01200
C381        C  0.49629189  0.23639069  0.52617162     0.01300
C382        C  0.50289298  0.22268452  0.98659118    -0.21500
C383        C  0.50749993  0.24796572  0.95845716    -0.21700
C384        C  0.50357594  0.27607594  0.98202112     0.01200
H385        H  0.50463725  0.19707405  0.97914495     0.15000
H386        H  0.51347570  0.24606296  0.92460616     0.15100
N387        N  0.23051992  0.50135317  0.52385409    -0.01200
C388        C  0.26335851  0.50120132  0.52638889     0.01300
C389        C  0.27704801  0.50792495  0.98683397    -0.21500
C390        C  0.25176093  0.51243472  0.95868105    -0.21700
C391        C  0.22365368  0.50833206  0.98219759     0.01200
H392        H  0.30265396  0.50977718  0.97940572     0.15000
H393        H  0.25365676  0.51843927  0.92483841     0.15100
N394        N  0.76451045  0.50205873  0.97803505    -0.01200
C395        C  0.73169030  0.50189431  0.97535093     0.01300
C396        C  0.71795360  0.49455003  0.51468079    -0.21500
C397        C  0.74320788  0.48997723  0.54286174    -0.21700
C398        C  0.77132898  0.49466282  0.51956800     0.01200
H399        H  0.69234557  0.49240641  0.52195501     0.15000
H400        H  0.74128586  0.48362182  0.57658919     0.15100
O401        O  0.47827483  0.51580190  0.67664253    -0.86100
C402        C  0.45908417  0.55945311  0.79109537     0.89900
Mg403      Mg  0.46744290  0.46604697  0.66334689     1.58100
O404        O  0.54141095  0.54421816  0.77276218    -0.85800
O405        O  0.52009615  0.54906726  0.67627643    -0.73200
C406        C  0.52196271  0.39142563  0.83811322     0.95000
O407        O  0.42134030  0.50122477  0.74346690    -0.73000
O408        O  0.50330580  0.38580970  0.80634196    -0.80500
Mg409      Mg  0.44013266  0.54442203  0.70370152     1.58000
C410        C  0.59961609  0.50277650  0.86112274     0.94900
O411        O  0.45588704  0.58757601  0.66137270    -0.78800
H412        H  0.58056904  0.54870413  0.73515417    -0.04100
C413        C  0.49243752  0.47737806  0.84308335     0.89800
O414        O  0.52059819  0.45251255  0.67698136    -0.73300
O415        O  0.47169935  0.55805970  0.75496798    -0.86000
O416        O  0.58115786  0.52737162  0.85666612    -0.78800
C417        C  0.52397314  0.61642046  0.83597851     0.95000
C418        C  0.47339814  0.61297589  0.66385611     0.94900
Mg419      Mg  0.55512825  0.45998839  0.79826404     1.58000
O420        O  0.53943413  0.41684687  0.84059213    -0.78800
O421        O  0.57393388  0.50318589  0.75853804    -0.73000
O422        O  0.51393845  0.61571114  0.79701148    -0.78800
O423        O  0.40382296  0.52990912  0.65282176    -0.80600
O424        O  0.48138160  0.38868221  0.70501136    -0.78900
C425        C  0.56600440  0.53296124  0.75522075     0.89300
O426        O  0.52356557  0.44635269  0.74701508    -0.86000
O427        O  0.51696657  0.48858263  0.82534460    -0.86100
O428        O  0.47518843  0.45527050  0.82577142    -0.73200
Mg429      Mg  0.51644850  0.58069878  0.73748991     1.58000
O430        O  0.53585774  0.59154945  0.85447347    -0.80600
H431        H  0.51032374  0.51706368  0.62827346    -0.04300
O432        O  0.45384528  0.46016523  0.72928471    -0.85800
H433        H  0.41471723  0.45573521  0.76696000    -0.04100
H434        H  0.56141464  0.43808219  0.70819666    -0.04300
C435        C  0.42927132  0.47145141  0.74684347     0.89300
C436        C  0.50283499  0.52697678  0.65894343     0.89900
C437        C  0.53616632  0.44495971  0.71087969     0.89900
H438        H  0.48496655  0.48727716  0.87376921    -0.04300
O439        O  0.47463011  0.55188058  0.82500421    -0.73300
Mg440      Mg  0.47884959  0.42367475  0.76453224     1.58000
H441        H  0.43383835  0.56634371  0.79376040    -0.04300
C442        C  0.39557510  0.50161445  0.64083716     0.94900
O443        O  0.45936008  0.41282424  0.64760301    -0.80500
C444        C  0.47130168  0.38796743  0.66606758     0.94900
O445        O  0.49205586  0.61856749  0.69563481    -0.80500
Mg446      Mg  0.52777238  0.53833365  0.83867939     1.58200
O447        O  0.41402445  0.47701291  0.64535023    -0.78800
O448        O  0.59138930  0.47448620  0.84911900    -0.80500
O449        O  0.51132693  0.02168673  0.67665997    -0.86100
C450        C  0.55489313  0.04090648  0.79115768     0.89900
Mg451      Mg  0.46157417  0.03250908  0.66330202     1.58100
O452        O  0.53968766  0.95858118  0.77279157    -0.85800
O453        O  0.54463536  0.97990275  0.67630027    -0.73200
C454        C  0.38686365  0.97808125  0.83806330     0.95000
O455        O  0.49672592  0.07867733  0.74339621    -0.73000
O456        O  0.38128863  0.99682606  0.80636563    -0.80500
Mg457      Mg  0.53993936  0.05984325  0.70370299     1.58000
C458        C  0.49816991  0.90032886  0.86114729     0.94900
O459        O  0.58310660  0.04405678  0.66140447    -0.78800
H460        H  0.54416202  0.91945184  0.73512979    -0.04100
C461        C  0.47284617  0.00758329  0.84305462     0.89800
O462        O  0.44800853  0.97937670  0.67696451    -0.73300
O463        O  0.55354219  0.02829955  0.75502220    -0.86000
O464        O  0.52277784  0.91877846  0.85671622    -0.78800
C465        C  0.61184897  0.97598199  0.83608883     0.95000
C466        C  0.60851713  0.02656665  0.66397100     0.94900
Mg467      Mg  0.45543101  0.94487952  0.79822953     1.58000
O468        O  0.41226006  0.96056711  0.84049265    -0.78800
O469        O  0.49864496  0.92608804  0.75851749    -0.73000
O470        O  0.61116832  0.98604783  0.79713637    -0.78800
O471        O  0.52545104  0.09611176  0.65278227    -0.80600
O472        O  0.38418254  0.01868130  0.70495023    -0.78900
C473        C  0.52842279  0.93400804  0.75521320     0.89300
O474        O  0.44181615  0.97646161  0.74699606    -0.86000
O475        O  0.48402083  0.98302220  0.82535614    -0.86100
O476        O  0.45077521  0.02486122  0.82570770    -0.73200
Mg477      Mg  0.57620176  0.98355605  0.73757771     1.58000
O478        O  0.58696175  0.96410140  0.85454638    -0.80600
H479        H  0.51265728  0.98966632  0.62826127    -0.04300
O480        O  0.45567586  0.04616233  0.72921494    -0.85800
H481        H  0.45121701  0.08533337  0.76680578    -0.04100
H482        H  0.43351441  0.93859974  0.70821458    -0.04300
C483        C  0.46694892  0.07075542  0.74674018     0.89300
C484        C  0.52253746  0.99714710  0.65895260     0.89900
C485        C  0.44041885  0.96384181  0.71087349     0.89900
H486        H  0.48275023  0.01506290  0.87373300    -0.04300
O487        O  0.54730718  0.02534437  0.82505049    -0.73300
Mg488      Mg  0.41917105  0.02121139  0.76448565     1.58000
H489        H  0.56176374  0.06615612  0.79384441    -0.04300
C490        C  0.49715201  0.10433984  0.64079506     0.94900
O491        O  0.40835127  0.04060319  0.64749357    -0.80500
C492        C  0.38348131  0.02870517  0.66597797     0.94900
O493        O  0.61410456  0.00797620  0.69581975    -0.80500
Mg494      Mg  0.53375951  0.97219224  0.83871672     1.58200
O495        O  0.47256013  0.08588464  0.64529720    -0.78800
O496        O  0.46989639  0.90857480  0.84908722    -0.80500
O497        O  0.01691568  0.98907980  0.67665257    -0.86100
C498        C  0.03612565  0.94544139  0.79108128     0.89900
Mg499      Mg  0.02776241  0.03883626  0.66335549     1.58100
O500        O  0.95380086  0.96060666  0.77271104    -0.85800
O501        O  0.97512629  0.95577783  0.67623477    -0.73200
C502        C  0.97315312  0.11340596  0.83809846     0.95000
O503        O  0.07385239  0.00364834  0.74347543    -0.73000
O504        O  0.99182743  0.11901392  0.80634105    -0.80500
Mg505      Mg  0.05505526  0.96045519  0.70370037     1.58000
C506        C  0.89550598  0.00196450  0.86110956     0.94900
O507        O  0.03933925  0.91731384  0.66133588    -0.78800
H508        H  0.91467694  0.95611733  0.73504464    -0.04100
C509        C  0.00269105  0.02747688  0.84309508     0.89800
O510        O  0.97460223  0.05238300  0.67697333    -0.73300
O511        O  0.02351062  0.94680001  0.75495176    -0.86000
O512        O  0.91402190  0.97741219  0.85664615    -0.78800
C513        C  0.97127832  0.88840552  0.83590688     0.95000
C514        C  0.02186090  0.89189221  0.66379108     0.94900
Mg515      Mg  0.93999654  0.04483311  0.79823956     1.58000
O516        O  0.95566595  0.08799183  0.84057420    -0.78800
O517        O  0.92126098  0.00162691  0.75847876    -0.73000
O518        O  0.98131606  0.88911782  0.79694203    -0.78800
O519        O  0.09131195  0.97495750  0.65284191    -0.80600
O520        O  0.01380843  0.11618027  0.70501698    -0.78900
C521        C  0.92921469  0.97185878  0.75514585     0.89300
O522        O  0.97159690  0.05849822  0.74701178    -0.86000
O523        O  0.97816964  0.01626555  0.82534560    -0.86100
O524        O  0.01995094  0.04957591  0.82578102    -0.73200
Mg525      Mg  0.97878665  0.92413349  0.73743675     1.58000
O526        O  0.95938636  0.91327197  0.85440394    -0.80600
H527        H  0.98488005  0.98782097  0.62826909    -0.04300
O528        O  0.04134256  0.04470297  0.72929730    -0.85800
H529        H  0.08047516  0.04914011  0.76696200    -0.04100
H530        H  0.93377169  0.06680378  0.70816752    -0.04300
C531        C  0.06592000  0.03342132  0.74685135     0.89300
C532        C  0.99236919  0.97789662  0.65893255     0.89900
C533        C  0.95901613  0.05991646  0.71086640     0.89900
H534        H  0.01014990  0.01758559  0.87379034    -0.04300
O535        O  0.02057174  0.95301805  0.82498131    -0.73300
Mg536      Mg  0.01631295  0.08117449  0.76454257     1.58000
H537        H  0.06138031  0.93858421  0.79375378    -0.04300
C538        C  0.09960420  0.00324064  0.64088778     0.94900
O539        O  0.03586099  0.09205603  0.64761636    -0.80500
C540        C  0.02390359  0.11690588  0.66607836     0.94900
O541        O  0.00320321  0.88627040  0.69556225    -0.80500
Mg542      Mg  0.96741565  0.96650114  0.83864091     1.58200
O543        O  0.08119310  0.02787113  0.64539356    -0.78800
O544        O  0.90366864  0.03027254  0.84907569    -0.80500
O545        O  0.98373823  0.48309523  0.67668507    -0.86100
C546        C  0.94012001  0.46393168  0.79119362     0.89900
Mg547      Mg  0.03349557  0.47233814  0.66333868     1.58100
O548        O  0.95536660  0.54625070  0.77274501    -0.85800
O549        O  0.95042671  0.52487637  0.67625071    -0.73200
C550        C  0.10816110  0.52657325  0.83826627     0.95000
O551        O  0.99840475  0.42615586  0.74353525    -0.73000
O552        O  0.11376528  0.50797545  0.80642861    -0.80500
Mg553      Mg  0.95519038  0.44491777  0.70383860     1.58000
C554        C  0.99684249  0.60448920  0.86119723     0.94900
O555        O  0.91200852  0.46053800  0.66158849    -0.78800
H556        H  0.95096762  0.58539463  0.73508810    -0.04100
C557        C  0.02213810  0.49720776  0.84307002     0.89800
O558        O  0.04700609  0.52547969  0.67706220    -0.73300
O559        O  0.94154951  0.47651890  0.75505349    -0.86000
O560        O  0.97221663  0.58608166  0.85664247    -0.78800
C561        C  0.88316856  0.52880451  0.83598820     0.95000
C562        C  0.88658888  0.47801284  0.66403963     0.94900
Mg563      Mg  0.03963351  0.55991223  0.79839637     1.58000
O564        O  0.08276292  0.54408971  0.84077198    -0.78800
O565        O  0.99644411  0.57874948  0.75862176    -0.73000
O566        O  0.88389205  0.51871144  0.79705121    -0.78800
O567        O  0.96970402  0.40861925  0.65299236    -0.80600
O568        O  0.11091455  0.48612907  0.70502442    -0.78900
C569        C  0.96666983  0.57082618  0.75520692     0.89300
O570        O  0.05326357  0.52838250  0.74709194    -0.86000
O571        O  0.01097647  0.52178294  0.82539196    -0.86100
O572        O  0.04423816  0.47995689  0.82573600    -0.73200
Mg573      Mg  0.91886478  0.52123558  0.73751360     1.58000
O574        O  0.90801112  0.54078625  0.85443648    -0.80600
H575        H  0.98239557  0.51506055  0.62822217    -0.04300
O576        O  0.03941405  0.45868368  0.72924711    -0.85800
H577        H  0.04393809  0.41953668  0.76686419    -0.04100
H578        H  0.06147250  0.56626592  0.70831074    -0.04300
C579        C  0.02817818  0.43409043  0.74680711     0.89300
C580        C  0.97251756  0.50761069  0.65892889     0.89900
C581        C  0.05460719  0.54101333  0.71096951     0.89900
H582        H  0.01221064  0.48970093  0.87372408    -0.04300
O583        O  0.94765840  0.47950781  0.82509015    -0.73300
Mg584      Mg  0.07589134  0.48362187  0.76453700     1.58000
H585        H  0.93321912  0.43869051  0.79388436    -0.04300
C586        C  0.99798809  0.40045738  0.64087105     0.94900
O587        O  0.08671588  0.46429587  0.64753093    -0.80500
C588        C  0.11160705  0.47611916  0.66604495     0.94900
O589        O  0.88099722  0.49675443  0.69573280    -0.80500
Mg590      Mg  0.96122781  0.53266065  0.83868979     1.58200
O591        O  0.02255492  0.41895983  0.64527939    -0.78800
O592        O  0.02513935  0.59618571  0.84929668    -0.80500
C593        C  0.80291058  0.49106942  0.53867131    -0.16300
C594        C  0.82508902  0.48658756  0.56325437     0.07800
C595        C  0.84696172  0.48126462  0.59752165     0.09600
C596        C  0.86448620  0.47820486  0.62834688    -0.17100
C597        C  0.78697873  0.50863397  0.94476754    -0.16300
C598        C  0.80684993  0.51429425  0.91692854     0.07800
C599        C  0.83138767  0.52058609  0.88572495     0.09600
C600        C  0.85383475  0.52515342  0.86117532    -0.17100
C601        C  0.71220732  0.50707653  0.93759375    -0.16300
C602        C  0.68922121  0.50907370  0.91375758     0.07800
C603        C  0.65853259  0.50895751  0.89353666     0.09600
C604        C  0.63141067  0.50706411  0.87914651    -0.17100
C605        C  0.19204608  0.51229661  0.96323344    -0.16300
C606        C  0.16981046  0.51708739  0.93881802     0.07800
C607        C  0.14782176  0.52277643  0.90475040     0.09600
C608        C  0.13023208  0.52613299  0.87402461    -0.17100
C609        C  0.20805380  0.49529115  0.55729909    -0.16300
C610        C  0.18812752  0.48998374  0.58519615     0.07800
C611        C  0.16349646  0.48400535  0.61638761     0.09600
C612        C  0.14098520  0.47963450  0.64090279    -0.17500
C613        C  0.36377726  0.49732028  0.62274628    -0.16300
C614        C  0.33666964  0.49529807  0.60828960     0.07800
C615        C  0.30596918  0.49488153  0.58803794     0.09600
C616        C  0.28292779  0.49651541  0.56421566    -0.17100
C617        C  0.49282708  0.13612222  0.62271671    -0.16300
C618        C  0.49071829  0.16321089  0.60824928     0.07800
C619        C  0.49017236  0.19386944  0.58793460     0.09600
C620        C  0.49170097  0.21685916  0.56403178    -0.17100
C621        C  0.52164129  0.36935484  0.87385194    -0.16300
C622        C  0.51835333  0.35180624  0.90461904     0.07800
C623        C  0.51264348  0.32987731  0.93872533     0.09600
C624        C  0.50774076  0.30766721  0.96312568    -0.17100
C625        C  0.47488490  0.35861440  0.64090082    -0.16300
C626        C  0.47931039  0.33614242  0.61634471     0.07800
C627        C  0.48532521  0.31157068  0.58509109     0.09600
C628        C  0.49061957  0.29168164  0.55714761    -0.17100
C629        C  0.50241847  0.86852180  0.87920513    -0.16300
C630        C  0.50428409  0.84138651  0.89359385     0.07800
C631        C  0.50440849  0.81065778  0.91375698     0.09600
C632        C  0.50246740  0.78761204  0.93752226    -0.17100
C633        C  0.47374156  0.63506636  0.62812927    -0.16300
C634        C  0.47693977  0.65263574  0.59736026     0.07800
C635        C  0.48235927  0.67458058  0.56317783     0.09600
C636        C  0.48684680  0.69679352  0.53863403    -0.17100
C637        C  0.52038398  0.64578144  0.86113757    -0.16300
C638        C  0.51588887  0.66826863  0.88565224     0.07800
C639        C  0.50969124  0.69286761  0.91681343     0.09600
C640        C  0.50411259  0.71277560  0.94464055    -0.17100
C641        C  0.13142370  0.00744878  0.62286813    -0.16300
C642        C  0.15858152  0.00910943  0.60851993     0.07800
C643        C  0.18932697  0.00881890  0.58841725     0.09600
C644        C  0.21237013  0.00640818  0.56472849    -0.17100
C645        C  0.36475216  0.97827551  0.87376367    -0.16300
C646        C  0.34721123  0.98121371  0.90460329     0.07800
C647        C  0.32531404  0.98624464  0.93893738     0.09600
C648        C  0.30312861  0.99037673  0.96362955    -0.17100
C649        C  0.28717918  0.00820173  0.55745377    -0.16300
C650        C  0.30707906  0.01406877  0.58518593     0.07800
C651        C  0.33166289  0.02047042  0.61629499     0.09600
C652        C  0.35413648  0.02506622  0.64079823    -0.17100
C653        C  0.86373582  0.99757265  0.87921313    -0.16300
C654        C  0.83666956  0.99532746  0.89372752     0.07800
C655        C  0.80603763  0.99453098  0.91411168     0.09600
C656        C  0.78306747  0.99577607  0.93808271    -0.17100
C657        C  0.63060494  0.02610894  0.62824637    -0.16300
C658        C  0.64818769  0.02262287  0.59754753     0.07800
C659        C  0.67014217  0.01664555  0.56354263     0.09600
C660        C  0.69234406  0.01151890  0.53920380    -0.17100
C661        C  0.70823357  0.99477519  0.94503400    -0.16300
C662        C  0.68830863  0.98967479  0.91707246     0.07800
C663        C  0.66369905  0.98381753  0.88581863     0.09600
C664        C  0.64120729  0.97948977  0.86126404    -0.17100
C665        C  0.97348650  0.13547876  0.87383134    -0.16300
C666        C  0.97681222  0.15303555  0.90458103     0.07800
C667        C  0.98256053  0.17496913  0.93866791     0.09600
C668        C  0.98746825  0.19717843  0.96306551    -0.17100
C669        C  0.02030886  0.14625765  0.64090742    -0.16300
C670        C  0.01586254  0.16871887  0.61633819     0.07800
C671        C  0.00982052  0.19327457  0.58506835     0.09600
C672        C  0.00451178  0.21315544  0.55711753    -0.17100
C673        C  0.00336414  0.28797184  0.56402446    -0.16300
C674        C  0.00490715  0.31095652  0.58793173     0.07800
C675        C  0.00440137  0.34161007  0.60825696     0.09600
C676        C  0.00232048  0.36869260  0.62274791    -0.17100
C677        C  0.00864116  0.80808898  0.53849130    -0.16300
C678        C  0.01309596  0.83030521  0.56304420     0.07800
C679        C  0.01844174  0.85224910  0.59725378     0.09600
C680        C  0.02157009  0.86981061  0.62804672    -0.17100
C681        C  0.97486289  0.85904316  0.86106043    -0.16300
C682        C  0.97934420  0.83655646  0.88557858     0.07800
C683        C  0.98553571  0.81196387  0.91674796     0.09600
C684        C  0.99114008  0.79206654  0.94457803    -0.17100
C685        C  0.99267758  0.71722615  0.93752148    -0.16300
C686        C  0.99065078  0.69417666  0.91377297     0.07800
C687        C  0.99073131  0.66344658  0.89360780     0.09600
C688        C  0.99259046  0.63630825  0.87922383    -0.17100
loop_ 
_geom_bond_atom_site_label_1 
_geom_bond_atom_site_label_2 
_geom_bond_distance 
_geom_bond_site_symmetry_2 
_ccdc_geom_bond_type 
N1            C2   1.355       .  A
N1          C349   1.355   1_655  A
N1          C340   1.413       .  S
C2          C341   1.438       .  S
C2          C347   1.380   1_655  A
C3            C4   1.372       .  A
C3          C346   1.380   1_454  A
C3            H6   1.082       .  S
C4            C5   1.379       .  A
C4            H7   1.083       .  S
C5          N345   1.355   1_454  A
C5          C333   1.438       .  S
N8            C9   1.355       .  A
N8          C356   1.355   1_554  A
N8          C328   1.413   1_655  S
C9          C329   1.437   1_655  S
C9          C354   1.380   1_554  A
C10          C11   1.372       .  A
C10         C353   1.380       .  A
C10          H13   1.082       .  S
C11          C12   1.379       .  A
C11          H14   1.083       .  S
C12         N352   1.355       .  A
C12         C324   1.438       .  S
N15          C16   1.355   1_545  A
N15         C363   1.355       .  A
N15         C317   1.413   1_545  S
C16         C312   1.437       .  S
C16         C361   1.380   1_565  A
C17          C18   1.373       .  A
C17         C360   1.380   1_544  A
C17          H20   1.082       .  S
C18          C19   1.379       .  A
C18          H21   1.083       .  S
C19         N359   1.355   1_554  A
C19         C316   1.438       .  S
N22          C23   1.355       .  A
N22         C370   1.355   1_544  A
N22         C305   1.413       .  S
C23         C300   1.437       .  S
C23         C368   1.380   1_544  A
C24          C25   1.372       .  A
C24         C367   1.380   1_565  A
C24          H27   1.082       .  S
C25          C26   1.379       .  A
C25          H28   1.083       .  S
C26         N366   1.355   1_565  A
C26         C304   1.438       .  S
N29          C30   1.355       .  A
N29         C377   1.355       .  A
N29         C296   1.413       .  S
C30         C288   1.437       .  S
C30         C375   1.380       .  A
C31          C32   1.372       .  A
C31         C374   1.380   1_554  A
C31          H34   1.082       .  S
C32          C33   1.379       .  A
C32          H35   1.083       .  S
C33         N373   1.355   1_554  A
C33         C292   1.438       .  S
N36          C37   1.355       .  A
N36         C384   1.355   1_554  A
N36         C284   1.413       .  S
C37         C276   1.437       .  S
C37         C382   1.380   1_554  A
C38          C39   1.373       .  A
C38         C381   1.380       .  A
C38          H41   1.082       .  S
C39          C40   1.379       .  A
C39          H42   1.083       .  S
C40         N380   1.355       .  A
C40         C280   1.438       .  S
N43          C44   1.355       .  A
N43         C391   1.355   1_554  A
N43         C265   1.413       .  S
C44         C272   1.438       .  S
C44         C389   1.380   1_554  A
C45          C46   1.373       .  A
C45         C388   1.380       .  A
C45          H48   1.082       .  S
C46          C47   1.379       .  A
C46          H49   1.083       .  S
C47         N387   1.355       .  A
C47         C261   1.438       .  S
N50          C51   1.354       .  A
N50         C398   1.355       .  A
N50         C253   1.413       .  S
C51         C257   1.437       .  S
C51         C396   1.380       .  A
C52          C53   1.372       .  A
C52         C395   1.380   1_554  A
C52          H55   1.082       .  S
C53          C54   1.379       .  A
C53          H56   1.083       .  S
C54         N394   1.355   1_554  A
C54         C249   1.437       .  S
O57         Mg59   2.138       .  S
O57         Mg65   2.136       .  S
O57          C92   1.240       .  S
C58          H97   1.081       .  S
C58          O71   1.238       .  S
C58          O95   1.271       .  A
Mg59         O88   2.137       .  S
Mg59        O103   2.315       .  S
Mg59         O99   2.271       .  S
Mg59         O70   2.299       .  S
O60        Mg102   2.137       .  S
O60         Mg85   2.125       .  S
O60          C81   1.240       .  S
O61          C92   1.274       .  A
O61         Mg85   2.310       .  S
C62         C277   1.435       .  S
C62          O64   1.272       .  A
C62          O76   1.273       .  A
O63          C91   1.273       .  A
O63         Mg65   2.300       .  S
O64         Mg96   2.266       .  S
Mg65         O71   2.131       .  S
Mg65         O79   2.256       .  S
Mg65         O67   2.304       .  S
C66         C260   1.435       .  S
C66         O104   1.270       .  A
C66          O72   1.274       .  A
O67          C74   1.273       .  A
H68          C81   1.081       .  S
C69          H94   1.081       .  S
C69          O83   1.240       .  S
C69          O84   1.274       .  A
O70          C93   1.271       .  A
O71         Mg85   2.136       .  S
O72        Mg102   2.313       .  S
C73         C293   1.447       .  S
C73          O86   1.272       .  A
C73          O78   1.279       .  A
C74         C289   1.435       .  S
C74         O101   1.272       .  A
Mg75         O82   2.131       .  S
Mg75         O83   2.137       .  S
Mg75         O76   2.303       .  S
Mg75         O77   2.300       .  S
Mg75        O104   2.254       .  S
O77          C81   1.273       .  A
O78         Mg85   2.347       .  S
O79          C98   1.270       .  A
O80         C100   1.279       .  A
O80         Mg96   2.346       .  S
O82         Mg96   2.136       .  S
O82          C93   1.238       .  S
O83        Mg102   2.137       .  S
O84         Mg96   2.309       .  S
Mg85        O101   2.265       .  S
O86        Mg102   2.271       .  S
H87          C92   1.081       .  S
O88         Mg96   2.126       .  S
O88          C91   1.240       .  S
H89          C91   1.081       .  S
H90          C93   1.081       .  S
O95        Mg102   2.298       .  S
C98         C269   1.436       .  S
C98         O103   1.274       .  A
O99         C100   1.272       .  A
C100        C281   1.447       .  S
O105       Mg107   2.138       .  S
O105       Mg113   2.136       .  S
O105        C140   1.240   1_545  S
C106        H145   1.081       .  S
C106        O119   1.238       .  S
C106        O143   1.271       .  A
Mg107       O136   2.137       .  S
Mg107       O151   2.313       .  S
Mg107       O147   2.271       .  S
Mg107       O118   2.298   1_545  S
O108       Mg150   2.137       .  S
O108       Mg133   2.125       .  S
O108        C129   1.240       .  S
O109        C140   1.274       .  A
O109       Mg133   2.310       .  S
C110        C301   1.435       .  S
C110        O112   1.272       .  A
C110        O124   1.273       .  A
O111        C139   1.273       .  A
O111       Mg113   2.300       .  S
O112       Mg144   2.266   1_565  S
Mg113       O119   2.131       .  S
Mg113       O127   2.256       .  S
Mg113       O115   2.304       .  S
C114        C285   1.436       .  S
C114        O152   1.270       .  A
C114        O120   1.274       .  A
O115        C122   1.273       .  A
H116        C129   1.081       .  S
C117        H142   1.081       .  S
C117        O131   1.240   1_545  S
C117        O132   1.274       .  A
O118        C141   1.271       .  A
O119       Mg133   2.136   1_545  S
O120       Mg150   2.315       .  S
C121        C320   1.447       .  S
C121        O134   1.272       .  A
C121        O126   1.279       .  A
C122        C313   1.435       .  S
C122        O149   1.272       .  A
Mg123       O130   2.130       .  S
Mg123       O131   2.137       .  S
Mg123       O124   2.303       .  S
Mg123       O125   2.300       .  S
Mg123       O152   2.255       .  S
O125        C129   1.273       .  A
O126       Mg133   2.347       .  S
O127        C146   1.270       .  A
O128        C148   1.279       .  A
O128       Mg144   2.347       .  S
O130       Mg144   2.136   1_565  S
O130        C141   1.238       .  S
O131       Mg150   2.137       .  S
O132       Mg144   2.309       .  S
Mg133       O149   2.265   1_565  S
O134       Mg150   2.270       .  S
H135        C140   1.081       .  S
O136       Mg144   2.125       .  S
O136        C139   1.240       .  S
H137        C139   1.081       .  S
H138        C141   1.081       .  S
O143       Mg150   2.299   1_545  S
C146        C273   1.435       .  S
C146        O151   1.274       .  A
O147        C148   1.272       .  A
C148        C308   1.447       .  S
O153       Mg155   2.138   1_565  S
O153       Mg161   2.136       .  S
O153        C188   1.240   1_455  S
C154        H193   1.081       .  S
C154        O167   1.238       .  S
C154        O191   1.271       .  A
Mg155       O184   2.137       .  S
Mg155       O199   2.315       .  S
Mg155       O195   2.271       .  S
Mg155       O166   2.299   1_455  S
O156       Mg198   2.137       .  S
O156       Mg181   2.125       .  S
O156        C177   1.240       .  S
O157        C188   1.274       .  A
O157       Mg181   2.310       .  S
C158        C321   1.435       .  S
C158        O160   1.272       .  A
C158        O172   1.273       .  A
O159        C187   1.273       .  A
O159       Mg161   2.300   1_545  S
O160       Mg192   2.265   1_655  S
Mg161       O167   2.130       .  S
Mg161       O175   2.254       .  S
Mg161       O163   2.304       .  S
C162        C309   1.436   1_545  S
C162        O200   1.270       .  A
C162        O168   1.274   1_545  A
O163        C170   1.273       .  A
H164        C177   1.081       .  S
C165        H190   1.081       .  S
C165        O179   1.240   1_455  S
C165        O180   1.274       .  A
O166        C189   1.271       .  A
O167       Mg181   2.136   1_455  S
O168       Mg198   2.313       .  S
C169        C337   1.447       .  S
C169        O182   1.272       .  A
C169        O174   1.279       .  A
C170        C336   1.435       .  S
C170        O197   1.272       .  A
Mg171       O178   2.131       .  S
Mg171       O179   2.137       .  S
Mg171       O172   2.303       .  S
Mg171       O173   2.299       .  S
Mg171       O200   2.256       .  S
O173        C177   1.273   1_545  A
O174       Mg181   2.347       .  S
O175        C194   1.269   1_565  A
O176        C196   1.279       .  A
O176       Mg192   2.347       .  S
O178       Mg192   2.136   1_655  S
O178        C189   1.238       .  S
O179       Mg198   2.137   1_545  S
O180       Mg192   2.309       .  S
Mg181       O197   2.266   1_655  S
O182       Mg198   2.271       .  S
H183        C188   1.081       .  S
O184       Mg192   2.125       .  S
O184        C187   1.240       .  S
H185        C187   1.081       .  S
H186        C189   1.081       .  S
O191       Mg198   2.298   1_455  S
C194        C297   1.436       .  S
C194        O199   1.274       .  A
O195        C196   1.272       .  A
C196        C325   1.447       .  S
O201       Mg203   2.137   1_655  S
O201       Mg209   2.137       .  S
O201        C236   1.240       .  S
C202        H241   1.081       .  S
C202        O215   1.238       .  S
C202        O239   1.271       .  A
Mg203       O232   2.137       .  S
Mg203       O247   2.313       .  S
Mg203       O243   2.271       .  S
Mg203       O214   2.298       .  S
O204       Mg246   2.137       .  S
O204       Mg229   2.126       .  S
O204        C225   1.240       .  S
O205        C236   1.274       .  A
O205       Mg229   2.309       .  S
C206        C264   1.435       .  S
C206        O208   1.272       .  A
C206        O220   1.273       .  A
O207        C235   1.273   1_655  A
O207       Mg209   2.299       .  S
O208       Mg240   2.266       .  S
Mg209       O215   2.131       .  S
Mg209       O223   2.255       .  S
Mg209       O211   2.302       .  S
C210        C344   1.436       .  S
C210        O248   1.270   1_655  A
C210        O216   1.274       .  A
O211        C218   1.273       .  A
H212        C225   1.081       .  S
C213        H238   1.081       .  S
C213        O227   1.240       .  S
C213        O228   1.274       .  A
O214        C237   1.271       .  A
O215       Mg229   2.136       .  S
O216       Mg246   2.315       .  S
C217        C256   1.447       .  S
C217        O230   1.272       .  A
C217        O222   1.279       .  A
C218        C252   1.434       .  S
C218        O245   1.272       .  A
Mg219       O226   2.131       .  S
Mg219       O227   2.136       .  S
Mg219       O220   2.305       .  S
Mg219       O221   2.301   1_455  S
Mg219       O248   2.256       .  S
O221        C225   1.274       .  A
O222       Mg229   2.346       .  S
O223        C242   1.270       .  A
O224        C244   1.279       .  A
O224       Mg240   2.347       .  S
O226       Mg240   2.136       .  S
O226        C237   1.238       .  S
O227       Mg246   2.138   1_455  S
O228       Mg240   2.310       .  S
Mg229       O245   2.266       .  S
O230       Mg246   2.271       .  S
H231        C236   1.081       .  S
O232       Mg240   2.125       .  S
O232        C235   1.240       .  S
H233        C235   1.081       .  S
H234        C237   1.081       .  S
O239       Mg246   2.299       .  S
C242        C332   1.435   1_655  S
C242        O247   1.274   1_655  A
O243        C244   1.272       .  A
C244        C268   1.447       .  S
C249        C250   1.205       .  T
C250        C251   1.412       .  S
C251        C252   1.206       .  T
C253        C254   1.213       .  T
C254        C255   1.424       .  S
C255        C256   1.213       .  T
C257        C258   1.205       .  T
C258        C259   1.411       .  S
C259        C260   1.206       .  T
C261        C262   1.205       .  T
C262        C263   1.412       .  S
C263        C264   1.206       .  T
C265        C266   1.213       .  T
C266        C267   1.424       .  S
C267        C268   1.213       .  T
C269        C270   1.206       .  T
C270        C271   1.412       .  S
C271        C272   1.205       .  T
C273        C274   1.206       .  T
C274        C275   1.412       .  S
C275        C276   1.205       .  T
C277        C278   1.206       .  T
C278        C279   1.412       .  S
C279        C280   1.205       .  T
C281        C282   1.213       .  T
C282        C283   1.424       .  S
C283        C284   1.213       .  T
C285        C286   1.206       .  T
C286        C287   1.412       .  S
C287        C288   1.205       .  T
C289        C290   1.206       .  T
C290        C291   1.412       .  S
C291        C292   1.205       .  T
C293        C294   1.213       .  T
C294        C295   1.424       .  S
C295        C296   1.213       .  T
C297        C298   1.206       .  T
C298        C299   1.412       .  S
C299        C300   1.205       .  T
C301        C302   1.206       .  T
C302        C303   1.412       .  S
C303        C304   1.205       .  T
C305        C306   1.213       .  T
C306        C307   1.424       .  S
C307        C308   1.213       .  T
C309        C310   1.206       .  T
C310        C311   1.412       .  S
C311        C312   1.205       .  T
C313        C314   1.206       .  T
C314        C315   1.412       .  S
C315        C316   1.205       .  T
C317        C318   1.213       .  T
C318        C319   1.424       .  S
C319        C320   1.213       .  T
C321        C322   1.206       .  T
C322        C323   1.412       .  S
C323        C324   1.205       .  T
C325        C326   1.213       .  T
C326        C327   1.424       .  S
C327        C328   1.213       .  T
C329        C330   1.205       .  T
C330        C331   1.412       .  S
C331        C332   1.206       .  T
C333        C334   1.205       .  T
C334        C335   1.412       .  S
C335        C336   1.206       .  T
C337        C338   1.213       .  T
C338        C339   1.424       .  S
C339        C340   1.213       .  T
C341        C342   1.205       .  T
C342        C343   1.412       .  S
C343        C344   1.206       .  T
N345        C346   1.355       .  A
N345        C684   1.413       .  S
C346        C685   1.438       .  S
C347        C348   1.372       .  A
C347        H350   1.082       .  S
C348        C349   1.379       .  A
C348        H351   1.083       .  S
C349        C677   1.438       .  S
N352        C353   1.355       .  A
N352        C672   1.413   1_655  S
C353        C673   1.437   1_655  S
C354        C355   1.372       .  A
C354        H357   1.082       .  S
C355        C356   1.379       .  A
C355        H358   1.083       .  S
C356        C668   1.438       .  S
N359        C360   1.355   1_545  A
N359        C661   1.413   1_545  S
C360        C656   1.437       .  S
C361        C362   1.373       .  A
C361        H364   1.082       .  S
C362        C363   1.379       .  A
C362        H365   1.083       .  S
C363        C660   1.438       .  S
N366        C367   1.355       .  A
N366        C649   1.413       .  S
C367        C644   1.437       .  S
C368        C369   1.372       .  A
C368        H371   1.082       .  S
C369        C370   1.379       .  A
C369        H372   1.083       .  S
C370        C648   1.438       .  S
N373        C374   1.355       .  A
N373        C640   1.413       .  S
C374        C632   1.437       .  S
C375        C376   1.372       .  A
C375        H378   1.082       .  S
C376        C377   1.379       .  A
C376        H379   1.083       .  S
C377        C636   1.438       .  S
N380        C381   1.355       .  A
N380        C628   1.413       .  S
C381        C620   1.437       .  S
C382        C383   1.373       .  A
C382        H385   1.082       .  S
C383        C384   1.379       .  A
C383        H386   1.083       .  S
C384        C624   1.438       .  S
N387        C388   1.355       .  A
N387        C609   1.413       .  S
C388        C616   1.438       .  S
C389        C390   1.373       .  A
C389        H392   1.082       .  S
C390        C391   1.379       .  A
C390        H393   1.083       .  S
C391        C605   1.438       .  S
N394        C395   1.354       .  A
N394        C597   1.413       .  S
C395        C601   1.437       .  S
C396        C397   1.372       .  A
C396        H399   1.082       .  S
C397        C398   1.379       .  A
C397        H400   1.083       .  S
C398        C593   1.437       .  S
O401       Mg403   2.138       .  S
O401       Mg409   2.136       .  S
O401        C436   1.240       .  S
C402        H441   1.081       .  S
C402        O415   1.238       .  S
C402        O439   1.271       .  A
Mg403       O432   2.137       .  S
Mg403       O447   2.315       .  S
Mg403       O443   2.271       .  S
Mg403       O414   2.299       .  S
O404       Mg446   2.137       .  S
O404       Mg429   2.125       .  S
O404        C425   1.240       .  S
O405        C436   1.274       .  A
O405       Mg429   2.310       .  S
C406        C621   1.435       .  S
C406        O408   1.272       .  A
C406        O420   1.273       .  A
O407        C435   1.273       .  A
O407       Mg409   2.300       .  S
O408       Mg440   2.266       .  S
Mg409       O415   2.131       .  S
Mg409       O423   2.256       .  S
Mg409       O411   2.304       .  S
C410        C604   1.435       .  S
C410        O448   1.270       .  A
C410        O416   1.274       .  A
O411        C418   1.273       .  A
H412        C425   1.081       .  S
C413        H438   1.081       .  S
C413        O427   1.240       .  S
C413        O428   1.274       .  A
O414        C437   1.271       .  A
O415       Mg429   2.136       .  S
O416       Mg446   2.313       .  S
C417        C637   1.447       .  S
C417        O430   1.272       .  A
C417        O422   1.279       .  A
C418        C633   1.435       .  S
C418        O445   1.272       .  A
Mg419       O426   2.131       .  S
Mg419       O427   2.137       .  S
Mg419       O420   2.303       .  S
Mg419       O421   2.300       .  S
Mg419       O448   2.254       .  S
O421        C425   1.273       .  A
O422       Mg429   2.347       .  S
O423        C442   1.270       .  A
O424        C444   1.279       .  A
O424       Mg440   2.346       .  S
O426       Mg440   2.136       .  S
O426        C437   1.238       .  S
O427       Mg446   2.137       .  S
O428       Mg440   2.309       .  S
Mg429       O445   2.265       .  S
O430       Mg446   2.271       .  S
H431        C436   1.081       .  S
O432       Mg440   2.126       .  S
O432        C435   1.240       .  S
H433        C435   1.081       .  S
H434        C437   1.081       .  S
O439       Mg446   2.298       .  S
C442        C613   1.436       .  S
C442        O447   1.274       .  A
O443        C444   1.272       .  A
C444        C625   1.447       .  S
O449       Mg451   2.138       .  S
O449       Mg457   2.136       .  S
O449        C484   1.240   1_545  S
C450        H489   1.081       .  S
C450        O463   1.238       .  S
C450        O487   1.271       .  A
Mg451       O480   2.137       .  S
Mg451       O495   2.313       .  S
Mg451       O491   2.271       .  S
Mg451       O462   2.298   1_545  S
O452       Mg494   2.137       .  S
O452       Mg477   2.125       .  S
O452        C473   1.240       .  S
O453        C484   1.274       .  A
O453       Mg477   2.310       .  S
C454        C645   1.435       .  S
C454        O456   1.272       .  A
C454        O468   1.273       .  A
O455        C483   1.273       .  A
O455       Mg457   2.300       .  S
O456       Mg488   2.266   1_565  S
Mg457       O463   2.131       .  S
Mg457       O471   2.256       .  S
Mg457       O459   2.304       .  S
C458        C629   1.436       .  S
C458        O496   1.270       .  A
C458        O464   1.274       .  A
O459        C466   1.273       .  A
H460        C473   1.081       .  S
C461        H486   1.081       .  S
C461        O475   1.240   1_545  S
C461        O476   1.274       .  A
O462        C485   1.271       .  A
O463       Mg477   2.136   1_545  S
O464       Mg494   2.315       .  S
C465        C664   1.447       .  S
C465        O478   1.272       .  A
C465        O470   1.279       .  A
C466        C657   1.435       .  S
C466        O493   1.272       .  A
Mg467       O474   2.130       .  S
Mg467       O475   2.137       .  S
Mg467       O468   2.303       .  S
Mg467       O469   2.300       .  S
Mg467       O496   2.255       .  S
O469        C473   1.273       .  A
O470       Mg477   2.347       .  S
O471        C490   1.270       .  A
O472        C492   1.279       .  A
O472       Mg488   2.347       .  S
O474       Mg488   2.136   1_565  S
O474        C485   1.238       .  S
O475       Mg494   2.137       .  S
O476       Mg488   2.309       .  S
Mg477       O493   2.265   1_565  S
O478       Mg494   2.270       .  S
H479        C484   1.081       .  S
O480       Mg488   2.125       .  S
O480        C483   1.240       .  S
H481        C483   1.081       .  S
H482        C485   1.081       .  S
O487       Mg494   2.299   1_545  S
C490        C617   1.435       .  S
C490        O495   1.274       .  A
O491        C492   1.272       .  A
C492        C652   1.447       .  S
O497       Mg499   2.138   1_565  S
O497       Mg505   2.136       .  S
O497        C532   1.240   1_455  S
C498        H537   1.081       .  S
C498        O511   1.238       .  S
C498        O535   1.271       .  A
Mg499       O528   2.137       .  S
Mg499       O543   2.315       .  S
Mg499       O539   2.271       .  S
Mg499       O510   2.299   1_455  S
O500       Mg542   2.137       .  S
O500       Mg525   2.125       .  S
O500        C521   1.240       .  S
O501        C532   1.274       .  A
O501       Mg525   2.310       .  S
C502        C665   1.435       .  S
C502        O504   1.272       .  A
C502        O516   1.273       .  A
O503        C531   1.273       .  A
O503       Mg505   2.300   1_545  S
O504       Mg536   2.265   1_655  S
Mg505       O511   2.130       .  S
Mg505       O519   2.254       .  S
Mg505       O507   2.304       .  S
C506        C653   1.436   1_545  S
C506        O544   1.270       .  A
C506        O512   1.274   1_545  A
O507        C514   1.273       .  A
H508        C521   1.081       .  S
C509        H534   1.081       .  S
C509        O523   1.240   1_455  S
C509        O524   1.274       .  A
O510        C533   1.271       .  A
O511       Mg525   2.136   1_455  S
O512       Mg542   2.313       .  S
C513        C681   1.447       .  S
C513        O526   1.272       .  A
C513        O518   1.279       .  A
C514        C680   1.435       .  S
C514        O541   1.272       .  A
Mg515       O522   2.131       .  S
Mg515       O523   2.137       .  S
Mg515       O516   2.303       .  S
Mg515       O517   2.299       .  S
Mg515       O544   2.256       .  S
O517        C521   1.273   1_545  A
O518       Mg525   2.347       .  S
O519        C538   1.269   1_565  A
O520        C540   1.279       .  A
O520       Mg536   2.347       .  S
O522       Mg536   2.136   1_655  S
O522        C533   1.238       .  S
O523       Mg542   2.137   1_545  S
O524       Mg536   2.309       .  S
Mg525       O541   2.266   1_655  S
O526       Mg542   2.271       .  S
H527        C532   1.081       .  S
O528       Mg536   2.125       .  S
O528        C531   1.240       .  S
H529        C531   1.081       .  S
H530        C533   1.081       .  S
O535       Mg542   2.298   1_455  S
C538        C641   1.436       .  S
C538        O543   1.274       .  A
O539        C540   1.272       .  A
C540        C669   1.447       .  S
O545       Mg547   2.137   1_655  S
O545       Mg553   2.137       .  S
O545        C580   1.240       .  S
C546        H585   1.081       .  S
C546        O559   1.238       .  S
C546        O583   1.271       .  A
Mg547       O576   2.137       .  S
Mg547       O591   2.313       .  S
Mg547       O587   2.271       .  S
Mg547       O558   2.298       .  S
O548       Mg590   2.137       .  S
O548       Mg573   2.126       .  S
O548        C569   1.240       .  S
O549        C580   1.274       .  A
O549       Mg573   2.309       .  S
C550        C608   1.435       .  S
C550        O552   1.272       .  A
C550        O564   1.273       .  A
O551        C579   1.273   1_655  A
O551       Mg553   2.299       .  S
O552       Mg584   2.266       .  S
Mg553       O559   2.131       .  S
Mg553       O567   2.255       .  S
Mg553       O555   2.302       .  S
C554        C688   1.436       .  S
C554        O592   1.270   1_655  A
C554        O560   1.274       .  A
O555        C562   1.273       .  A
H556        C569   1.081       .  S
C557        H582   1.081       .  S
C557        O571   1.240       .  S
C557        O572   1.274       .  A
O558        C581   1.271       .  A
O559       Mg573   2.136       .  S
O560       Mg590   2.315       .  S
C561        C600   1.447       .  S
C561        O574   1.272       .  A
C561        O566   1.279       .  A
C562        C596   1.434       .  S
C562        O589   1.272       .  A
Mg563       O570   2.131       .  S
Mg563       O571   2.136       .  S
Mg563       O564   2.305       .  S
Mg563       O565   2.301   1_455  S
Mg563       O592   2.256       .  S
O565        C569   1.273       .  A
O566       Mg573   2.346       .  S
O567        C586   1.270       .  A
O568        C588   1.279       .  A
O568       Mg584   2.347       .  S
O570       Mg584   2.136       .  S
O570        C581   1.238       .  S
O571       Mg590   2.138   1_455  S
O572       Mg584   2.310       .  S
Mg573       O589   2.266       .  S
O574       Mg590   2.271       .  S
H575        C580   1.081       .  S
O576       Mg584   2.125       .  S
O576        C579   1.240       .  S
H577        C579   1.081       .  S
H578        C581   1.081       .  S
O583       Mg590   2.299       .  S
C586        C676   1.435   1_655  S
C586        O591   1.274   1_655  A
O587        C588   1.272       .  A
C588        C612   1.447       .  S
C593        C594   1.205       .  T
C594        C595   1.412       .  S
C595        C596   1.206       .  T
C597        C598   1.213       .  T
C598        C599   1.424       .  S
C599        C600   1.213       .  T
C601        C602   1.205       .  T
C602        C603   1.411       .  S
C603        C604   1.206       .  T
C605        C606   1.205       .  T
C606        C607   1.412       .  S
C607        C608   1.206       .  T
C609        C610   1.213       .  T
C610        C611   1.424       .  S
C611        C612   1.213       .  T
C613        C614   1.206       .  T
C614        C615   1.412       .  S
C615        C616   1.205       .  T
C617        C618   1.206       .  T
C618        C619   1.412       .  S
C619        C620   1.205       .  T
C621        C622   1.206       .  T
C622        C623   1.412       .  S
C623        C624   1.205       .  T
C625        C626   1.213       .  T
C626        C627   1.424       .  S
C627        C628   1.213       .  T
C629        C630   1.206       .  T
C630        C631   1.412       .  S
C631        C632   1.205       .  T
C633        C634   1.206       .  T
C634        C635   1.412       .  S
C635        C636   1.205       .  T
C637        C638   1.213       .  T
C638        C639   1.424       .  S
C639        C640   1.213       .  T
C641        C642   1.206       .  T
C642        C643   1.412       .  S
C643        C644   1.205       .  T
C645        C646   1.206       .  T
C646        C647   1.412       .  S
C647        C648   1.205       .  T
C649        C650   1.213       .  T
C650        C651   1.424       .  S
C651        C652   1.213       .  T
C653        C654   1.206       .  T
C654        C655   1.412       .  S
C655        C656   1.205       .  T
C657        C658   1.206       .  T
C658        C659   1.412       .  S
C659        C660   1.205       .  T
C661        C662   1.213       .  T
C662        C663   1.424       .  S
C663        C664   1.213       .  T
C665        C666   1.206       .  T
C666        C667   1.412       .  S
C667        C668   1.205       .  T
C669        C670   1.213       .  T
C670        C671   1.424       .  S
C671        C672   1.213       .  T
C673        C674   1.205       .  T
C674        C675   1.412       .  S
C675        C676   1.206       .  T
C677        C678   1.205       .  T
C678        C679   1.412       .  S
C679        C680   1.206       .  T
C681        C682   1.213       .  T
C682        C683   1.424       .  S
C683        C684   1.213       .  T
C685        C686   1.205       .  T
C686        C687   1.412       .  S
C687        C688   1.206       .  T
