geometry optimzed in LAMMPS
_audit_creation_date              2020-11-30 
_audit_creation_method            'lammps2cif' 
_symmetry_space_group_name_H-M    'P1' 
_symmetry_Int_Tables_number       1 
_symmetry_cell_setting            triclinic 
loop_ 
_symmetry_equiv_pos_as_xyz 
  x,y,z 
_cell_length_a                    52.772266364407926 
_cell_length_b                    32.69830047969121 
_cell_length_c                    29.301851015921542 
_cell_angle_alpha                 90.1210799371598 
_cell_angle_beta                  90.57979836177063 
_cell_angle_gamma                 90.60602026496251 
loop_ 
_atom_site_label 
_atom_site_type_symbol 
_atom_site_fract_x 
_atom_site_fract_y 
_atom_site_fract_z 
_atom_site_charge 
O1          O  0.57953943  0.45507966  0.95423305    -0.73300
O2          O  0.65421108  0.45438938  0.97270242    -0.74290
O3          O  0.61142834  0.41635306  0.01794234    -0.62900
O4          O  0.62010651  0.49248921  0.91092775    -0.71320
O5          O  0.61451205  0.54525836  0.95668355    -0.70870
O6          O  0.61082269  0.46971929  0.06482638    -0.62120
O7          O  0.65208277  0.50851291  0.01766265    -0.74630
O8          O  0.57694770  0.50582951  0.00380372    -0.73410
Cu9        Cu  0.61683328  0.45268288  0.96257254     1.04560
Cu10       Cu  0.61399604  0.50921391  0.01244515     1.04330
C11         C  0.56634031  0.48074022  0.97607844     0.92890
C12         C  0.66523617  0.48152263  0.99736554     0.92030
C13         C  0.60768153  0.43142537  0.05764741     0.84180
C14         C  0.61436172  0.52998721  0.91646973     0.90450
O15         O  0.37010928  0.50259126  0.00894449    -0.73300
O16         O  0.44597593  0.50207089  0.00708993    -0.74290
O17         O  0.40827890  0.54393417  0.95670411    -0.62900
O18         O  0.40944464  0.45992033  0.05835771    -0.71320
O19         O  0.41183744  0.41239624  0.00540791    -0.70870
O20         O  0.40498704  0.49413516  0.90599146    -0.62120
O21         O  0.44479412  0.45688211  0.95079164    -0.74630
O22         O  0.36941199  0.45005993  0.96164385    -0.73410
Cu23       Cu  0.40828695  0.50398829  0.00963905     1.04560
Cu24       Cu  0.40745407  0.45169930  0.95433243     1.04330
C25         C  0.35752374  0.47581789  0.98613138     0.92890
C26         C  0.45736839  0.47982354  0.97816922     0.92030
C27         C  0.40755203  0.53210598  0.91502505     0.84180
C28         C  0.41253627  0.42240647  0.04740394     0.90450
C29         C  0.44739029  0.62565461  0.76022210    -0.02850
C30         C  0.44247156  0.30648711  0.19310092    -0.02850
N31         N  0.31344046  0.43500272  0.46676154    -0.27650
N32         N  0.31301864  0.46730035  0.49382927    -0.35510
C33         C  0.28894562  0.47672921  0.50317079     0.00690
C34         C  0.27315341  0.44885004  0.48129873     0.06710
C35         C  0.28933925  0.42273359  0.45835387    -0.06380
H36         H  0.28334126  0.50215172  0.52438153     0.07380
H37         H  0.28398489  0.39692413  0.43704385     0.08580
Cu38       Cu  0.34514992  0.49617102  0.51818663     0.44170
Cu39       Cu  0.34762709  0.41228810  0.44215344     0.41990
Cu40       Cu  0.40690006  0.46453922  0.47836521     0.43880
N41         N  0.37875880  0.51732301  0.54568225    -0.35040
N42         N  0.40144328  0.50592193  0.53205066    -0.29290
C43         C  0.41896863  0.52307263  0.56008668    -0.05390
C44         C  0.40654095  0.54611283  0.59262939     0.06820
C45         C  0.38114039  0.54172835  0.58242613     0.00620
H46         H  0.43913788  0.51785044  0.55816172     0.08270
H47         H  0.36546314  0.55382421  0.60154581     0.07350
N48         N  0.40478966  0.42057742  0.42622225    -0.36490
N49         N  0.38347785  0.40101788  0.41512913    -0.28670
C50         C  0.38788262  0.37624231  0.37956857    -0.03910
C51         C  0.41297309  0.38049516  0.36682390     0.04700
C52         C  0.42321813  0.40886084  0.39728486     0.02800
H53         H  0.37338660  0.35832050  0.36211038     0.07900
H54         H  0.44223657  0.42154035  0.39699391     0.06740
C55         C  0.45096031  0.81280778  0.75901116    -0.02850
C56         C  0.44860472  0.12068938  0.17966042    -0.02850
N57         N  0.38054416  0.02620080  0.40093144    -0.27650
N58         N  0.40189702  0.00973849  0.41574031    -0.35510
C59         C  0.42108591  0.02291474  0.38925544     0.00690
C60         C  0.41127923  0.04836569  0.35571813     0.06710
C61         C  0.38553813  0.04958918  0.36436904    -0.06380
H62         H  0.44064692  0.01400349  0.39358106     0.07380
H63         H  0.37134050  0.06576067  0.34478655     0.08580
Cu64       Cu  0.40376707  0.96943325  0.47093149     0.44170
Cu65       Cu  0.34511328  0.01642205  0.42995380     0.41990
Cu66       Cu  0.34631259  0.96863943  0.53881225     0.43880
N67         N  0.40070790  0.94083566  0.53431097    -0.35040
N68         N  0.38137032  0.94724582  0.56147859    -0.29290
C69         C  0.38621612  0.92987602  0.60202049    -0.05390
C70         C  0.40888614  0.90843297  0.60000197     0.06820
C71         C  0.41748954  0.91662273  0.55597999     0.00620
H72         H  0.37342401  0.93159950  0.63047130     0.08270
H73         H  0.43412703  0.90484410  0.53953152     0.07350
N74         N  0.31256673  0.98049934  0.50357702    -0.36490
N75         N  0.31215408  0.99972574  0.46399989    -0.28670
C76         C  0.28795482  0.00291931  0.44950734    -0.03910
C77         C  0.27219773  0.98389404  0.48088489     0.04700
C78         C  0.28864765  0.96991923  0.51467178     0.02800
H79         H  0.28227963  0.01748702  0.41797214     0.07900
H80         H  0.28364744  0.95260540  0.54473141     0.06740
O81         O  0.57086579  0.00875353  0.92278025    -0.73300
O82         O  0.64674014  0.00960183  0.92679264    -0.74290
O83         O  0.60766080  0.96596603  0.87549809    -0.62900
O84         O  0.60784462  0.05347290  0.97494576    -0.71320
O85         O  0.60661311  0.00467442  0.02679118    -0.70870
O86         O  0.60821063  0.91899026  0.92896469    -0.62120
O87         O  0.64588639  0.96205653  0.98065138    -0.74630
O88         O  0.57051052  0.96157564  0.97645894    -0.73410
Cu89       Cu  0.60854732  0.01127310  0.92319349     1.04560
Cu90       Cu  0.60798993  0.96025760  0.97993862     1.04330
C91         C  0.55861562  0.98452524  0.94870833     0.92890
C92         C  0.65831583  0.98568285  0.95426275     0.92030
C93         C  0.60641845  0.92822099  0.88675613     0.84180
C94         C  0.60605129  0.04266205  0.01680635     0.90450
O95         O  0.43991032  0.95560021  0.98410971    -0.73300
O96         O  0.36561769  0.94180573  0.99423091    -0.74290
O97         O  0.40459199  0.90671263  0.93928430    -0.62900
O98         O  0.40316506  0.98990733  0.03789368    -0.71320
O99         O  0.39761356  0.03822479  0.98599597    -0.70870
O100        O  0.39806638  0.95426490  0.88672019    -0.62120
O101        O  0.35996797  0.98972417  0.94177320    -0.74630
O102        O  0.43473563  0.00167513  0.93005465    -0.73410
Cu103      Cu  0.40316134  0.94676578  0.99064507     1.04560
Cu104      Cu  0.39710868  0.99776278  0.93444575     1.04330
C105        C  0.44926303  0.97931012  0.95414599     0.92890
C106        C  0.35095900  0.96412412  0.97027223     0.92030
C107        C  0.40401084  0.91781823  0.89752709     0.84180
C108        C  0.40191051  0.02758163  0.02724617     0.90450
C109        C  0.56855201  0.81117408  0.74530577    -0.02850
C110        C  0.56753073  0.13023312  0.17835269    -0.02850
N111        N  0.63457003  0.01570383  0.38651492    -0.27650
N112        N  0.61252748  0.00783660  0.40595270    -0.35510
C113        C  0.59397210  0.02482026  0.38045789     0.00690
C114        C  0.60509725  0.04428671  0.34360652     0.06710
C115        C  0.63073580  0.03770813  0.34856271    -0.06380
H116        H  0.57398392  0.02316931  0.38813525     0.07380
H117        H  0.64557921  0.04816492  0.32607744     0.08580
Cu118      Cu  0.60938836  0.97464290  0.46656996     0.44170
Cu119      Cu  0.66948872  0.99776185  0.41121749     0.41990
Cu120      Cu  0.67054630  0.94818481  0.51847103     0.43880
N121        N  0.61355803  0.94185828  0.52733392    -0.35040
N122        N  0.63580075  0.93341098  0.54612631    -0.29290
C123        C  0.63223313  0.91074839  0.58371385    -0.05390
C124        C  0.60655188  0.90417006  0.58889663     0.06820
C125        C  0.59521424  0.92436686  0.55260986     0.00620
H126        H  0.64732082  0.89836466  0.60461003     0.08270
H127        H  0.57521526  0.92484760  0.54416471     0.07350
N128        N  0.70313973  0.96217721  0.48313522    -0.36490
N129        N  0.70274416  0.98043158  0.44299249    -0.28670
C130        C  0.72665960  0.98607481  0.42876359    -0.03910
C131        C  0.74281113  0.97050622  0.46168045     0.04700
C132        C  0.72731310  0.95554400  0.49566089     0.02800
H133        H  0.73189620  0.00080361  0.39716846     0.07900
H134        H  0.73317423  0.94142694  0.52735143     0.06740
C135        C  0.56645085  0.62224304  0.76151352    -0.02850
C136        C  0.56031994  0.32031419  0.19857509    -0.02850
N137        N  0.63968883  0.41516484  0.41041645    -0.27650
N138        N  0.61838211  0.42653708  0.43002253    -0.35510
C139        C  0.59862964  0.41379568  0.40400700     0.00690
C140        C  0.60808493  0.39347344  0.36652942     0.06710
C141        C  0.63408636  0.39483676  0.37171879    -0.06380
H142        H  0.57893720  0.41948405  0.41141012     0.07380
H143        H  0.64794675  0.38255999  0.34860583     0.08580
Cu144      Cu  0.61693158  0.46132455  0.48941673     0.44170
Cu145      Cu  0.67583940  0.42844999  0.43454819     0.41990
Cu146      Cu  0.67766599  0.49826282  0.52778644     0.43880
N147        N  0.62186586  0.50382057  0.54171872    -0.35040
N148        N  0.64415805  0.52009987  0.55225525    -0.29290
C149        C  0.64151993  0.54715784  0.58630025    -0.05390
C150        C  0.61641929  0.54697349  0.59928461     0.06820
C151        C  0.60447949  0.51915728  0.57007053     0.00620
H152        H  0.65709852  0.56357504  0.60248793     0.08270
H153        H  0.58485722  0.50928872  0.57082035     0.07350
N154        N  0.70918395  0.46914319  0.50420000    -0.36490
N155        N  0.70907123  0.44511768  0.46797724    -0.28670
C156        C  0.73305901  0.43463781  0.45869814    -0.03910
C157        C  0.74887382  0.45256665  0.49127793     0.04700
C158        C  0.73297123  0.47366879  0.51989725     0.02800
H159        H  0.73859956  0.41630549  0.42977217     0.07900
H160        H  0.73835744  0.49228683  0.54905112     0.06740
O161        O  0.15070577  0.43538192  0.51191563    -0.73300
O162        O  0.07534110  0.44033199  0.50889960    -0.74290
O163        O  0.11101415  0.39872248  0.45828835    -0.62900
O164        O  0.11257548  0.47834320  0.56351037    -0.71320
O165        O  0.11536733  0.52989304  0.51575847    -0.70870
O166        O  0.11108833  0.45012614  0.41018385    -0.62120
O167        O  0.07754442  0.49443610  0.46389209    -0.74630
O168        O  0.15250418  0.48624912  0.46219472    -0.73410
Cu169      Cu  0.11269001  0.43647259  0.51241202     1.04560
Cu170      Cu  0.11458665  0.49189149  0.46129457     1.04330
C171        C  0.16360789  0.45937206  0.48659528     0.92890
C172        C  0.06455921  0.46866314  0.48643852     0.92030
C173        C  0.10850953  0.41175566  0.41750027     0.84180
C174        C  0.11180943  0.51688575  0.55635369     0.90450
O175        O  0.86803384  0.48439869  0.46722163    -0.73300
O176        O  0.94272497  0.49569485  0.45963813    -0.74290
O177        O  0.90501861  0.45064934  0.41140079    -0.62900
O178        O  0.90659125  0.52921962  0.51437611    -0.71320
O179        O  0.91166078  0.47783201  0.56277848    -0.70870
O180        O  0.91169052  0.39831707  0.45713163    -0.62120
O181        O  0.94697308  0.44340582  0.50673188    -0.74630
O182        O  0.87221800  0.43213840  0.51468915    -0.73410
Cu183      Cu  0.90512005  0.49146525  0.46144355     1.04560
Cu184      Cu  0.91031191  0.43584914  0.51206490     1.04330
C185        C  0.85820559  0.45691243  0.49243310     0.92890
C186        C  0.95666058  0.47268801  0.48407410     0.92030
C187        C  0.91121237  0.41347677  0.41693475     0.84180
C188        C  0.91187290  0.51624099  0.55428795     0.90450
C189        C  0.94395583  0.63470242  0.69880362    -0.02850
C190        C  0.95918195  0.32351132  0.26253905    -0.02850
N191        N  0.90640246  0.43347851  0.03435334    -0.27650
N192        N  0.88486801  0.41851949  0.05034392    -0.35510
C193        C  0.89003615  0.39301168  0.08485451     0.00690
C194        C  0.91598953  0.39239097  0.09165667     0.06710
C195        C  0.92584559  0.41829655  0.05894299    -0.06380
H196        H  0.87583420  0.37887741  0.10623045     0.07380
H197        H  0.94545941  0.42757523  0.05529589     0.08580
Cu198      Cu  0.84896677  0.43824695  0.03209858     0.44170
Cu199      Cu  0.90814366  0.47592173  0.98213893     0.41990
Cu200      Cu  0.84574278  0.50559064  0.93910489     0.43880
N201        N  0.81527432  0.46450053  0.01103324    -0.35040
N202        N  0.81413456  0.48930449  0.97563893    -0.29290
C203        C  0.78995170  0.50007684  0.96822111    -0.05390
C204        C  0.77510592  0.48123536  0.00078202     0.06820
C205        C  0.79179864  0.45900419  0.02752783     0.00620
H206        H  0.78356182  0.51919319  0.94038976     0.08270
H207        H  0.78711983  0.43933272  0.05594165     0.07350
N208        N  0.87957822  0.52062525  0.90877867    -0.36490
N209        N  0.90235036  0.51167219  0.92485813    -0.28670
C210        C  0.91993193  0.52770962  0.89691616    -0.03910
C211        C  0.90744327  0.54732967  0.86160301     0.04700
C212        C  0.88197463  0.54198201  0.87012264     0.02800
H213        H  0.94019437  0.52513644  0.90185657     0.07900
H214        H  0.86626419  0.55313690  0.84983672     0.06740
C215        C  0.95092923  0.82026353  0.68244735    -0.02850
C216        C  0.95027426  0.13218141  0.24828670    -0.02850
N217        N  0.87530186  0.94061378  0.88005518    -0.27650
N218        N  0.89763401  0.95145372  0.89749329    -0.35510
C219        C  0.91593475  0.93491971  0.87172170     0.00690
C220        C  0.90444708  0.91268186  0.83674826     0.06710
C221        C  0.87875847  0.91700371  0.84311495    -0.06380
H222        H  0.93606326  0.93868433  0.87798943     0.07380
H223        H  0.86364607  0.90394976  0.82234937     0.08580
Cu224      Cu  0.90208401  0.98800460  0.95587400     0.44170
Cu225      Cu  0.84058974  0.95708838  0.90612795     0.41990
Cu226      Cu  0.84201349  0.01051092  0.01127749     0.43880
N227        N  0.89917078  0.02383992  0.01489240    -0.35040
N228        N  0.87719670  0.03134030  0.03442962    -0.29290
C229        C  0.88125805  0.05427709  0.07186265    -0.05390
C230        C  0.90695883  0.06213969  0.07641533     0.06820
C231        C  0.91784514  0.04201980  0.03981123     0.00620
H232        H  0.86654846  0.06373600  0.09494159     0.08270
H233        H  0.93783050  0.04009882  0.03237298     0.07350
N234        N  0.80838506  0.99204868  0.97970754    -0.36490
N235        N  0.80793756  0.97350416  0.93965155    -0.28670
C236        C  0.78372776  0.96751229  0.92631791    -0.03910
C237        C  0.76807183  0.98270888  0.95985813     0.04700
C238        C  0.78440973  0.99793640  0.99331629     0.02800
H239        H  0.77795185  0.95344372  0.89438216     0.07900
H240        H  0.77925769  0.01263806  0.02493962     0.06740
O241        O  0.14857431  0.99665032  0.49011203    -0.73300
O242        O  0.07293632  0.99488561  0.47994118    -0.74290
O243        O  0.10807845  0.95449432  0.53601956    -0.62900
O244        O  0.11158290  0.03629585  0.43438010    -0.71320
O245        O  0.11332453  0.98521380  0.38549459    -0.70870
O246        O  0.10872132  0.90279325  0.48684923    -0.62120
O247        O  0.07424116  0.94438600  0.42954089    -0.74630
O248        O  0.15034292  0.94420915  0.44265529    -0.73410
Cu249      Cu  0.11052753  0.99721497  0.48691646     1.04560
Cu250      Cu  0.11208667  0.94238318  0.43439905     1.04330
C251        C  0.16164383  0.97071819  0.46807878     0.92890
C252        C  0.06159961  0.96984898  0.45298124     0.92030
C253        C  0.10577292  0.91624339  0.52737746     0.84180
C254        C  0.11100412  0.02347478  0.39327401     0.90450
O255        O  0.86515325  0.99936737  0.48516314    -0.73300
O256        O  0.94100766  0.99747851  0.48287150    -0.74290
O257        O  0.90443328  0.03674681  0.43037919    -0.62900
O258        O  0.90377419  0.96169090  0.53849499    -0.71320
O259        O  0.90311226  0.90751898  0.49271786    -0.70870
O260        O  0.90276067  0.98330907  0.38371668    -0.62120
O261        O  0.93948228  0.94413032  0.43631059    -0.74630
O262        O  0.86416977  0.94627026  0.43832086    -0.73410
Cu263      Cu  0.90327149  0.00066140  0.48581535     1.04560
Cu264      Cu  0.90192661  0.94342750  0.43620492     1.04330
C265        C  0.85255431  0.97276575  0.46204556     0.92890
C266        C  0.95225698  0.97066494  0.45889189     0.92030
C267        C  0.90621976  0.02168739  0.39029950     0.84180
C268        C  0.90582685  0.92319446  0.53257882     0.90450
C269        C  0.06258214  0.62783373  0.69591612    -0.02850
C270        C  0.07296157  0.31033223  0.26299941    -0.02850
N271        N  0.20700731  0.48294217  0.96791655    -0.27650
N272        N  0.20652404  0.45990678  0.00481665    -0.35510
C273        C  0.23053858  0.45379082  0.01927764     0.00690
C274        C  0.24686230  0.47421139  0.98996579     0.06710
C275        C  0.23116155  0.49254790  0.95803963    -0.06380
H276        H  0.23577418  0.43512578  0.04824733     0.07380
H277        H  0.23692772  0.51070890  0.92904638     0.08580
Cu278      Cu  0.17225613  0.43873292  0.03118882     0.44170
Cu279      Cu  0.17439909  0.49812348  0.93242572     0.41990
Cu280      Cu  0.11300683  0.48466798  0.98870916     0.43880
N281        N  0.13600216  0.42408176  0.05435247    -0.35040
N282        N  0.11457697  0.44158825  0.04149706    -0.29290
C283        C  0.09550076  0.42667973  0.06743935    -0.05390
C284        C  0.10551019  0.39845865  0.09785246     0.06820
C285        C  0.13109469  0.39746660  0.08791644     0.00620
H286        H  0.07604136  0.43665031  0.06538702     0.08270
H287        H  0.14545844  0.38000261  0.10557239     0.07350
N288        N  0.11828112  0.51559404  0.92691559    -0.36490
N289        N  0.14001596  0.51587111  0.90490078    -0.28670
C290        C  0.13653153  0.53215341  0.86333389    -0.03910
C291        C  0.11159852  0.54456397  0.85902357     0.04700
C292        C  0.10065067  0.53362538  0.90037609     0.02800
H293        H  0.15121671  0.53440003  0.83799181     0.07900
H294        H  0.08112499  0.53766202  0.91012354     0.06740
C295        C  0.06880545  0.81682887  0.68468906    -0.02850
C296        C  0.06733437  0.12421422  0.24142656    -0.02850
N297        N  0.12020648  0.01386996  0.01526210    -0.27650
N298        N  0.13784705  0.00795572  0.04674124    -0.35510
C299        C  0.13272231  0.03046655  0.08348728     0.00690
C300        C  0.11120115  0.05303521  0.07480806     0.06710
C301        C  0.10389801  0.04195906  0.03071016    -0.06380
H302        H  0.14378692  0.02987810  0.11475022     0.07380
H303        H  0.08767669  0.05245398  0.01145390     0.08580
Cu304      Cu  0.17011236  0.97458071  0.03839814     0.44170
Cu305      Cu  0.11650332  0.97686963  0.95795802     0.41990
Cu306      Cu  0.17076179  0.91225457  0.94189938     0.43880
N307        N  0.20326750  0.95553996  0.00993409    -0.35040
N308        N  0.20335331  0.93327632  0.97239815    -0.29290
C309        C  0.22719799  0.92953020  0.95789977    -0.05390
C310        C  0.24287198  0.95030538  0.98817316     0.06820
C311        C  0.22715588  0.96649623  0.02084853     0.00620
H312        H  0.23265366  0.91347418  0.92727618     0.08270
H313        H  0.23256159  0.98558941  0.04959935     0.07350
N314        N  0.13609672  0.90108099  0.91251843    -0.36490
N315        N  0.11640575  0.92545532  0.91622816    -0.28670
C316        C  0.09828279  0.91280244  0.88670393    -0.03910
C317        C  0.10718282  0.87893083  0.86367190     0.04700
C318        C  0.13113939  0.87236869  0.88093126     0.02800
H319        H  0.08097780  0.92916062  0.87954796     0.07900
H320        H  0.14497727  0.85124450  0.86790039     0.06740
C321        C  0.07234230  0.07232823  0.11885369    -0.02210
C322        C  0.09821602  0.07812247  0.10970715     0.07470
C323        C  0.11340420  0.09982766  0.14108722    -0.02320
C324        C  0.10416907  0.11042586  0.18425123    -0.02320
C325        C  0.07763222  0.10751525  0.19423006     0.07600
C326        C  0.06231760  0.08428734  0.16135382    -0.02520
Br327      Br  0.03141095  0.05342522  0.17614973    -0.01070
Br328      Br  0.05046635  0.04424137  0.07497470    -0.01140
Br329      Br  0.13000609  0.12669106  0.22819810    -0.01100
Br330      Br  0.14701849  0.11801767  0.12317509    -0.01080
C331        C  0.07290405  0.81559787  0.77439675    -0.02210
C332        C  0.08044798  0.83433909  0.73158149     0.07470
C333        C  0.09817264  0.86889479  0.73604193    -0.02320
C334        C  0.10602352  0.88328069  0.77956667    -0.02320
C335        C  0.09804521  0.86378410  0.81924350     0.07600
C336        C  0.08222349  0.82967949  0.81690414    -0.02520
Br337      Br  0.07283138  0.80322463  0.87360595    -0.01070
Br338      Br  0.04794315  0.77268025  0.77921885    -0.01140
Br339      Br  0.12831490  0.93101808  0.78659809    -0.01100
Br340      Br  0.11386890  0.90113326  0.68820050    -0.01080
C341        C  0.05207682  0.23575697  0.27419878    -0.02210
C342        C  0.07267336  0.26176908  0.26118716     0.07470
C343        C  0.09335274  0.23950505  0.24343085    -0.02320
C344        C  0.08888470  0.19989607  0.22533667    -0.02320
C345        C  0.07169496  0.17254053  0.24881933     0.07600
C346        C  0.05657243  0.19418866  0.28119416    -0.02520
Br347      Br  0.04166090  0.17273338  0.33591867    -0.01070
Br348      Br  0.01750434  0.24211171  0.25553867    -0.01140
Br349      Br  0.09838215  0.19862254  0.16214383    -0.01100
Br350      Br  0.12759495  0.25041901  0.26252018    -0.01080
C351        C  0.10610078  0.38097337  0.18003861    -0.02210
C352        C  0.09369242  0.37767293  0.13763754     0.07470
C353        C  0.07514950  0.34625547  0.13271845    -0.02320
C354        C  0.06921641  0.32059643  0.17092083    -0.02320
C355        C  0.08287746  0.32508368  0.21330003     0.07600
C356        C  0.10612243  0.34631708  0.20734507    -0.02520
Br357      Br  0.13359928  0.31490854  0.18290394    -0.01070
Br358      Br  0.13007609  0.42417593  0.19368200    -0.01140
Br359      Br  0.04593395  0.27685880  0.16118885    -0.01100
Br360      Br  0.05876765  0.33802825  0.07431158    -0.01080
C361        C  0.06081545  0.69982453  0.65152136    -0.02210
C362        C  0.06889990  0.67711816  0.69170299     0.07470
C363        C  0.08309321  0.70262373  0.72409376    -0.02320
C364        C  0.08907680  0.74473928  0.71491730    -0.02320
C365        C  0.07538186  0.76777960  0.68109945     0.07600
C366        C  0.06700834  0.74213194  0.64463031    -0.02520
Br367      Br  0.08074014  0.75302947  0.58405081    -0.01070
Br368      Br  0.04764681  0.67378431  0.59668741    -0.01140
Br369      Br  0.11927307  0.76667695  0.74623630    -0.01100
Br370      Br  0.09272150  0.68841213  0.78629970    -0.01080
C371        C  0.10174866  0.60620868  0.74991984    -0.02210
C372        C  0.07464226  0.60482935  0.74079706     0.07470
C373        C  0.06142216  0.57584480  0.77103309    -0.02320
C374        C  0.07481433  0.55265018  0.80437259    -0.02320
C375        C  0.09928266  0.56395256  0.81826081     0.07600
C376        C  0.11229647  0.59245946  0.79169621    -0.02520
Br377      Br  0.14392425  0.61641240  0.81444490    -0.01070
Br378      Br  0.12707676  0.62866210  0.71081695    -0.01140
Br379      Br  0.06099005  0.50125970  0.82741403    -0.01100
Br380      Br  0.02577098  0.56093246  0.77313266    -0.01080
C381        C  0.09074961  0.05671578  0.27518497    -0.02210
C382        C  0.08205439  0.09857548  0.28071672     0.07470
C383        C  0.09044999  0.11645101  0.32315981    -0.02320
C384        C  0.09626657  0.09205836  0.36129169    -0.02320
C385        C  0.10507268  0.05193218  0.35453085     0.07600
C386        C  0.10551071  0.03751917  0.30935470    -0.02520
Br387      Br  0.12798243  0.99336605  0.29265877    -0.01070
Br388      Br  0.08221488  0.01911980  0.22662951    -0.01140
Br389      Br  0.09571186  0.11818136  0.42067832    -0.01100
Br390      Br  0.11019410  0.16565840  0.32613695    -0.01080
C391        C  0.07427628  0.89847434  0.58599821    -0.02210
C392        C  0.09677337  0.88865626  0.56411604     0.07470
C393        C  0.11114059  0.85597496  0.58044105    -0.02320
C394        C  0.10318027  0.83334365  0.61935720    -0.02320
C395        C  0.07966033  0.84228196  0.64236921     0.07600
C396        C  0.06737383  0.87907167  0.62667295    -0.02520
Br397      Br  0.04603984  0.91313559  0.66291491    -0.01070
Br398      Br  0.05231522  0.93986093  0.56035918    -0.01140
Br399      Br  0.12838771  0.79703855  0.64350503    -0.01100
Br400      Br  0.14282748  0.84450447  0.55055775    -0.01080
C401        C  0.99329857  0.93281109  0.45623592    -0.02210
C402        C  0.98022957  0.97036159  0.45681936     0.07470
C403        C  0.99398382  0.00755773  0.45424100    -0.02320
C404        C  0.02049366  0.00719212  0.45074778    -0.02320
C405        C  0.03359909  0.96975041  0.45062966     0.07600
C406        C  0.01983928  0.93248549  0.45257728    -0.02520
Br407      Br  0.03709455  0.88052591  0.45348250    -0.01070
Br408      Br  0.97539195  0.88142635  0.46470229    -0.01140
Br409      Br  0.03855107  0.05850143  0.44409589    -0.01100
Br410      Br  0.97686374  0.05960717  0.45481844    -0.01080
C411        C  0.99693476  0.11197409  0.28365763    -0.02210
C412        C  0.98070258  0.12492399  0.24586992     0.07470
C413        C  0.99489567  0.13420156  0.20586311    -0.02320
C414        C  0.02155081  0.14098907  0.20815966    -0.02320
C415        C  0.03694871  0.12084632  0.24200437     0.07600
C416        C  0.02258965  0.10079080  0.27630715    -0.02520
Br417      Br  0.03514072  0.05549025  0.31231041    -0.01070
Br418      Br  0.98783371  0.10480988  0.34686298    -0.01140
Br419      Br  0.03557350  0.17167536  0.15818454    -0.01100
Br420      Br  0.98290512  0.11980216  0.14540719    -0.01080
C421        C  0.91564214  0.13554802  0.17604589    -0.02210
C422        C  0.93420010  0.11510286  0.20405979     0.07470
C423        C  0.93410985  0.07267671  0.19295750    -0.02320
C424        C  0.93374497  0.06022522  0.14725511    -0.02320
C425        C  0.91909627  0.08287126  0.11636527     0.07600
C426        C  0.90989730  0.12093892  0.13120971    -0.02520
Br427      Br  0.88960644  0.15321730  0.08959353    -0.01070
Br428      Br  0.89188094  0.17449210  0.19797971    -0.01140
Br429      Br  0.94485622  0.00574604  0.13348087    -0.01100
Br430      Br  0.90696351  0.04124661  0.22071183    -0.01080
C431        C  0.93665725  0.03623169  0.32745081    -0.02210
C432        C  0.91541156  0.04816974  0.35240772     0.07470
C433        C  0.90459186  0.08628490  0.34355018    -0.02320
C434        C  0.91544454  0.11362659  0.31139196    -0.02320
C435        C  0.93838940  0.10375077  0.28726443     0.07600
C436        C  0.94699262  0.06172583  0.29340149    -0.02520
Br437      Br  0.97164522  0.03338483  0.25487681    -0.01070
Br438      Br  0.95289514  0.98459042  0.34115525    -0.01140
Br439      Br  0.89722453  0.16405921  0.30436787    -0.01100
Br440      Br  0.87375678  0.10003519  0.37523773    -0.01080
C441        C  0.99567031  0.80391816  0.64907700    -0.02210
C442        C  0.98133385  0.82289808  0.68442089     0.07470
C443        C  0.99631910  0.83902176  0.72202265    -0.02320
C444        C  0.02324743  0.84222795  0.72004119    -0.02320
C445        C  0.03791240  0.82187951  0.68470677     0.07600
C446        C  0.02254063  0.80758340  0.64699727    -0.02520
Br447      Br  0.03439089  0.80963290  0.58471756    -0.01070
Br448      Br  0.97876621  0.77990855  0.59581539    -0.01140
Br449      Br  0.03624373  0.88339434  0.76375827    -0.01100
Br450      Br  0.98344636  0.84449136  0.78444642    -0.01080
C451        C  0.92931876  0.90972541  0.76499212    -0.02210
C452        C  0.91660511  0.88933576  0.79971855     0.07470
C453        C  0.91406657  0.84689943  0.79793751    -0.02320
C454        C  0.92222459  0.82469906  0.75934413    -0.02320
C455        C  0.93818839  0.84362233  0.72483816     0.07600
C456        C  0.94157924  0.88760917  0.73028313    -0.02520
Br457      Br  0.96620609  0.92044880  0.69854611    -0.01070
Br458      Br  0.92995707  0.96908281  0.76588732    -0.01140
Br459      Br  0.90524639  0.77240328  0.75570468    -0.01100
Br460      Br  0.89880932  0.81939432  0.84981476    -0.01080
C461        C  0.95343124  0.87405957  0.61082098    -0.02210
C462        C  0.93914285  0.84518910  0.63909238     0.07470
C463        C  0.91184526  0.84735686  0.63117479    -0.02320
C464        C  0.90127280  0.86895135  0.59351145    -0.02320
C465        C  0.91577010  0.89797683  0.57072486     0.07600
C466        C  0.94090683  0.90362771  0.58415518    -0.02520
Br467      Br  0.95753535  0.95553311  0.57065725    -0.01070
Br468      Br  0.98967304  0.88244008  0.60478362    -0.01140
Br469      Br  0.86608465  0.86261530  0.57540633    -0.01100
Br470      Br  0.88656533  0.82243995  0.66893112    -0.01080
C471        C  0.00649821  0.35521482  0.23395282    -0.02210
C472        C  0.98964174  0.33527658  0.26683192     0.07470
C473        C  0.00296389  0.32980414  0.30902775    -0.02320
C474        C  0.02880775  0.31871165  0.30990410    -0.02320
C475        C  0.04489837  0.32750152  0.27181256     0.07600
C476        C  0.03337165  0.35533140  0.24128732    -0.02520
Br477      Br  0.05203272  0.40512877  0.22835201    -0.01070
Br478      Br  0.99734023  0.38960189  0.18214953    -0.01140
Br479      Br  0.03736263  0.28944884  0.36436041    -0.01100
Br480      Br  0.99405331  0.36057656  0.36322280    -0.01080
C481        C  0.96113593  0.24641923  0.30043367    -0.02210
C482        C  0.95477699  0.27376838  0.26340276     0.07470
C483        C  0.94180699  0.25229192  0.22743891    -0.02320
C484        C  0.94641017  0.21063566  0.21898300    -0.02320
C485        C  0.94930320  0.18189029  0.25571676     0.07600
C486        C  0.95539880  0.20288584  0.29834131    -0.02520
Br487      Br  0.95126473  0.17768571  0.35755285    -0.01070
Br488      Br  0.97180261  0.26680705  0.35948267    -0.01140
Br489      Br  0.95175880  0.20189937  0.15489106    -0.01100
Br490      Br  0.91129539  0.27174658  0.19737200    -0.01080
C491        C  0.92598637  0.36798829  0.21447533    -0.02210
C492        C  0.94745425  0.34079330  0.21599396     0.07470
C493        C  0.95651689  0.32831677  0.17183951    -0.02320
C494        C  0.94628965  0.34499088  0.13101852    -0.02320
C495        C  0.92879882  0.37687575  0.13301293     0.07600
C496        C  0.92056137  0.39055239  0.17535367    -0.02520
Br497      Br  0.90041695  0.43959064  0.18022425    -0.01070
Br498      Br  0.89661598  0.36542786  0.25377367    -0.01140
Br499      Br  0.95636646  0.32483154  0.07195981    -0.01100
Br500      Br  0.98336163  0.28964456  0.16448409    -0.01080
C501        C  0.98955232  0.63576702  0.66075528    -0.02210
C502        C  0.97487248  0.63213069  0.70052237     0.07470
C503        C  0.99091848  0.63619609  0.74075167    -0.02320
C504        C  0.01788328  0.64290658  0.73631755    -0.02320
C505        C  0.03155562  0.62755835  0.69716539     0.07600
C506        C  0.01401764  0.61789583  0.66017549    -0.02520
Br507      Br  0.01977666  0.58668714  0.60535824    -0.01070
Br508      Br  0.99379405  0.69248408  0.64658202    -0.01140
Br509      Br  0.03408681  0.66713023  0.78864339    -0.01100
Br510      Br  0.98022240  0.62497939  0.80297725    -0.01080
C511        C  0.94922194  0.70849306  0.73148686    -0.02210
C512        C  0.93772858  0.68241082  0.69870058     0.07470
C513        C  0.92450425  0.70375690  0.66343145    -0.02320
C514        C  0.92952801  0.74631312  0.65403393    -0.02320
C515        C  0.94579443  0.77104100  0.68390317     0.07600
C516        C  0.95745658  0.74720232  0.71959443    -0.02520
Br517      Br  0.99074015  0.75109711  0.74525460    -0.01070
Br518      Br  0.94685838  0.70342642  0.79744249    -0.01140
Br519      Br  0.91753541  0.76267724  0.59401869    -0.01100
Br520      Br  0.89462167  0.67915585  0.63512183    -0.01080
C521        C  0.90992606  0.60979707  0.81430955    -0.02210
C522        C  0.91814236  0.56990415  0.82267230     0.07470
C523        C  0.93342480  0.55008712  0.79073672    -0.02320
C524        C  0.94142659  0.57077462  0.75113544    -0.02320
C525        C  0.93364729  0.61218739  0.74225689     0.07600
C526        C  0.91515674  0.62896335  0.77264754    -0.02520
Br527      Br  0.89119357  0.67153553  0.75641057    -0.01070
Br528      Br  0.89152976  0.63909292  0.86088085    -0.01140
Br529      Br  0.96289479  0.54040800  0.70974293    -0.01100
Br530      Br  0.94303388  0.49389093  0.80085040    -0.01080
C531        C  0.92667130  0.32653308  0.33366137    -0.02210
C532        C  0.94485891  0.34575169  0.30338406     0.07470
C533        C  0.94761178  0.38940569  0.30876854    -0.02320
C534        C  0.93519498  0.41097833  0.34348506    -0.02320
C535        C  0.92087190  0.39016739  0.37680181     0.07600
C536        C  0.91705500  0.34776687  0.37201022    -0.02520
Br537      Br  0.89594470  0.31921115  0.41566068    -0.01070
Br538      Br  0.90718813  0.27750660  0.31874107    -0.01140
Br539      Br  0.93900961  0.47027922  0.34460527    -0.01100
Br540      Br  0.96765745  0.42338299  0.26891667    -0.01080
C541        C  0.90735239  0.54653572  0.63179808    -0.02210
C542        C  0.91941452  0.54639709  0.58987385     0.07470
C543        C  0.93658257  0.57823285  0.57960811    -0.02320
C544        C  0.94104936  0.61079630  0.61052798    -0.02320
C545        C  0.93149482  0.60943258  0.65623051     0.07600
C546        C  0.91110839  0.57954775  0.66207546    -0.02520
Br547      Br  0.88200234  0.58699484  0.70039120    -0.01070
Br548      Br  0.88427764  0.50202460  0.64702677    -0.01100
Br549      Br  0.95065723  0.66065245  0.58019288    -0.01100
Br550      Br  0.95519739  0.57690759  0.52295553    -0.01080
C551        C  0.09705940  0.33995923  0.38666154    -0.02210
C552        C  0.10228523  0.38234387  0.37893384     0.07470
C553        C  0.10267484  0.39511176  0.33277649    -0.02320
C554        C  0.10446613  0.36534749  0.29885502    -0.02320
C555        C  0.09115108  0.32783381  0.30339074     0.07600
C556        C  0.09237525  0.31286137  0.34913014    -0.02520
Br557      Br  0.09421491  0.25560235  0.36232929    -0.01070
Br558      Br  0.09370452  0.31790080  0.44775460    -0.01140
Br559      Br  0.14050366  0.35805176  0.29142177    -0.01100
Br560      Br  0.10854033  0.45047996  0.31303822    -0.01080
C561        C  0.10594634  0.58886844  0.58950683    -0.02210
C562        C  0.10351550  0.54607544  0.59368994     0.07470
C563        C  0.08959756  0.53147459  0.63093971    -0.02320
C564        C  0.07294713  0.55730960  0.65469134    -0.02320
C565        C  0.07549406  0.60141867  0.65463727     0.07600
C566        C  0.09448322  0.61596688  0.62169484    -0.02520
Br567      Br  0.11043895  0.66991762  0.61917479    -0.01070
Br568      Br  0.12869652  0.61034059  0.54306820    -0.01140
Br569      Br  0.04537880  0.52700808  0.68069916    -0.01100
Br570      Br  0.09449674  0.47634184  0.65373347    -0.01080
C571        C  0.99709695  0.46712257  0.52738244    -0.02210
C572        C  0.98417038  0.47933881  0.48730766     0.07470
C573        C  0.99802686  0.49451397  0.45005516    -0.02320
C574        C  0.02411080  0.48808652  0.44837108    -0.02320
C575        C  0.03696171  0.47242241  0.48701265     0.07600
C576        C  0.02344268  0.46342071  0.52720530    -0.02520
Br577      Br  0.04029790  0.44640371  0.58283948    -0.01070
Br578      Br  0.97923619  0.45968899  0.58442869    -0.01140
Br579      Br  0.04109475  0.49725429  0.39086098    -0.01100
Br580      Br  0.98274394  0.52809452  0.40350661    -0.01080
C581        C  0.79013872  0.49068446  0.49686811    -0.02210
C582        C  0.77689185  0.45304997  0.49276002     0.07470
C583        C  0.79054312  0.41617280  0.49062851    -0.02320
C584        C  0.81722955  0.41708512  0.49079244    -0.02320
C585        C  0.83035176  0.45470366  0.49562856     0.07600
C586        C  0.81665527  0.49126401  0.50037111    -0.02520
Br587      Br  0.83402883  0.54240436  0.51387243    -0.01070
Br588      Br  0.77259443  0.54227393  0.49368441    -0.01140
Br589      Br  0.83553066  0.36690870  0.48176196    -0.01100
Br590      Br  0.77293200  0.36410180  0.48899535    -0.01080
C591        C  0.57001516  0.38202011  0.25667548    -0.02210
C592        C  0.57222759  0.33879540  0.24556852     0.07470
C593        C  0.58769968  0.31617335  0.27821459    -0.02320
C594        C  0.59509700  0.33319392  0.32059922    -0.02320
C595        C  0.59403013  0.37510931  0.32767252     0.07600
C596        C  0.58226548  0.39969116  0.29524696    -0.02520
Br597      Br  0.58329567  0.45851265  0.30453112    -0.01070
Br598      Br  0.54858987  0.42009974  0.22544101    -0.01140
Br599      Br  0.60798326  0.29928706  0.36995898    -0.01100
Br600      Br  0.60583448  0.26618597  0.26798655    -0.01080
C601        C  0.60617716  0.58053165  0.72280020    -0.02210
C602        C  0.58038963  0.59698014  0.72083822     0.07470
C603        C  0.56789108  0.58705266  0.67866592    -0.02320
C604        C  0.58155887  0.58343848  0.63838791    -0.02320
C605        C  0.60550282  0.56606010  0.64056844     0.07600
C606        C  0.61707429  0.56191917  0.68371690    -0.02520
Br607      Br  0.64655203  0.52699894  0.69000615    -0.01070
Br608      Br  0.62893407  0.57767229  0.77533144    -0.01140
Br609      Br  0.56465448  0.59328334  0.58069027    -0.01100
Br610      Br  0.53974874  0.54925348  0.67449295    -0.01080
C611        C  0.78412087  0.93423501  0.45979580    -0.02210
C612        C  0.77074820  0.97115520  0.46159459     0.07470
C613        C  0.78402285  0.00865120  0.46401746    -0.02320
C614        C  0.81069671  0.00939573  0.46398552    -0.02320
C615        C  0.82435770  0.97231980  0.46259807     0.07600
C616        C  0.81078236  0.93462312  0.46104319    -0.02520
Br617      Br  0.82808163  0.88277950  0.46308697    -0.01070
Br618      Br  0.76578294  0.88297842  0.45388454    -0.01140
Br619      Br  0.82789858  0.06184814  0.46385562    -0.01100
Br620      Br  0.76555216  0.05916212  0.46896418    -0.01080
C621        C  0.55180383  0.20204298  0.20581839    -0.02210
C622        C  0.57043884  0.18019517  0.18287184     0.07470
C623        C  0.58752718  0.20788666  0.15916308    -0.02320
C624        C  0.58289562  0.25177271  0.15771443    -0.02320
C625        C  0.56722967  0.27187238  0.19214421     0.07600
C626        C  0.55583475  0.24203513  0.22160179    -0.02520
Br627      Br  0.54446513  0.25069683  0.28291653    -0.01070
Br628      Br  0.52404038  0.20539190  0.16707391    -0.01140
Br629      Br  0.59567935  0.27704474  0.10271031    -0.01100
Br630      Br  0.61856262  0.18965117  0.13084281    -0.01080
C631        C  0.57361268  0.06441238  0.22938802    -0.02210
C632        C  0.57900714  0.10727943  0.22173411     0.07470
C633        C  0.59430584  0.12697913  0.25656073    -0.02320
C634        C  0.59935794  0.10775529  0.29867055    -0.02320
C635        C  0.59314985  0.06655804  0.30525809     0.07600
C636        C  0.58033582  0.04493914  0.27074450    -0.02520
Br637      Br  0.57310260  0.98731051  0.27994825    -0.01070
Br638      Br  0.56037465  0.02826020  0.18288474    -0.01140
Br639      Br  0.61548093  0.13787820  0.34829754    -0.01100
Br640      Br  0.61666405  0.17198286  0.24486598    -0.01080
C641        C  0.55130948  0.69847389  0.75229307    -0.02210
C642        C  0.57215136  0.67169343  0.75540846     0.07470
C643        C  0.59581824  0.69511916  0.75463117    -0.02320
C644        C  0.59586957  0.73986082  0.75874727    -0.02320
C645        C  0.57328674  0.76267911  0.74759524     0.07600
C646        C  0.55428891  0.73696521  0.73083716    -0.02520
Br647      Br  0.54260276  0.74850190  0.66921021    -0.01070
Br648      Br  0.53391533  0.70129811  0.80903072    -0.01140
Br649      Br  0.62753120  0.76792045  0.77221862    -0.01100
Br650      Br  0.62800358  0.67112721  0.74443563    -0.01080
C651        C  0.56236027  0.86273441  0.67807768    -0.02210
C652        C  0.57431600  0.82680503  0.69409872     0.07470
C653        C  0.59228851  0.81027016  0.66147834    -0.02320
C654        C  0.60102667  0.83504365  0.62472336    -0.02320
C655        C  0.59443360  0.87657900  0.62240408     0.07600
C656        C  0.57566249  0.89085565  0.65147794    -0.02520
Br657      Br  0.56416583  0.94646029  0.64901949    -0.01070
Br658      Br  0.52985365  0.85501474  0.64980294    -0.01140
Br659      Br  0.62216735  0.81280192  0.57702479    -0.01100
Br660      Br  0.60590327  0.75569002  0.66013263    -0.01080
C661        C  0.31161561  0.92183062  0.97892242    -0.02210
C662        C  0.32335477  0.96070996  0.97596813     0.07470
C663        C  0.30859261  0.99642471  0.97887526    -0.02320
C664        C  0.28214322  0.99314176  0.98253833    -0.02320
C665        C  0.27053353  0.95424082  0.98544303     0.07600
C666        C  0.28532527  0.91868762  0.98446402    -0.02520
Br667      Br  0.26973376  0.86543306  0.99243155    -0.01070
Br668      Br  0.33100770  0.87236627  0.97337389    -0.01140
Br669      Br  0.26189000  0.04202533  0.98106483    -0.01100
Br670      Br  0.32442481  0.05007138  0.98051053    -0.01080
C671        C  0.69920378  0.94792501  0.94907905    -0.02210
C672        C  0.68632898  0.98504074  0.95558970     0.07470
C673        C  0.70026654  0.02128438  0.96419347    -0.02320
C674        C  0.72696088  0.02066979  0.96523265    -0.02320
C675        C  0.73992570  0.98345426  0.95914916     0.07600
C676        C  0.72586271  0.94699362  0.95155061    -0.02520
Br677      Br  0.74282162  0.89510968  0.94675478    -0.01070
Br678      Br  0.68036666  0.89843457  0.93478060    -0.01140
Br679      Br  0.74549923  0.07151320  0.97262446    -0.01100
Br680      Br  0.68273431  0.07156492  0.97677889    -0.01080
C681        C  0.58754680  0.10864796  0.04955390    -0.02210
C682        C  0.60225145  0.07303712  0.05481453     0.07470
C683        C  0.61191070  0.06447983  0.09852296    -0.02320
C684        C  0.60449499  0.08773022  0.13670758    -0.02320
C685        C  0.58294453  0.11493424  0.13421057     0.07600
C686        C  0.57749446  0.12897618  0.08851230    -0.02520
Br687      Br  0.55372633  0.17203934  0.07593889    -0.01070
Br688      Br  0.57921497  0.12810331  0.98905033    -0.01140
Br689      Br  0.62970487  0.08715019  0.18533310    -0.01100
Br690      Br  0.63762067  0.02262967  0.10578921    -0.01080
C691        C  0.58382543  0.82746469  0.83025272    -0.02210
C692        C  0.58529306  0.83594737  0.78246486     0.07470
C693        C  0.60158144  0.86997279  0.77189456    -0.02320
C694        C  0.60731768  0.90081305  0.80477511    -0.02320
C695        C  0.60139687  0.89514115  0.85136569     0.07600
C696        C  0.59111310  0.85658787  0.86391875    -0.02520
Br697      Br  0.58708670  0.84123558  0.92762367    -0.01070
Br698      Br  0.57931366  0.77308296  0.85284514    -0.01140
Br699      Br  0.62569213  0.94917508  0.78515147    -0.01100
Br700      Br  0.62539085  0.86772150  0.72258618    -0.01080
C701        C  0.51765863  0.94569645  0.95736300    -0.02210
C702        C  0.53056937  0.98256171  0.94649309     0.07470
C703        C  0.51641018  0.01705780  0.93279736    -0.02320
C704        C  0.48982904  0.01492058  0.93105245    -0.02320
C705        C  0.47702377  0.97972245  0.94738508     0.07600
C706        C  0.49112324  0.94436520  0.95824188    -0.02520
Br707      Br  0.47462287  0.89218394  0.97108069    -0.01070
Br708      Br  0.53554540  0.89549394  0.96973475    -0.01140
Br709      Br  0.47188396  0.06045634  0.90437387    -0.01100
Br710      Br  0.53257896  0.06901097  0.91919016    -0.01080
C711        C  0.22870063  0.98799749  0.51618691    -0.02210
C712        C  0.24395659  0.97884910  0.47815641     0.07470
C713        C  0.23200713  0.96531387  0.43727740    -0.02320
C714        C  0.20529140  0.96349399  0.43357015    -0.02320
C715        C  0.19000910  0.97197220  0.47187054     0.07600
C716        C  0.20209203  0.98300304  0.51363448    -0.02520
Br717      Br  0.18265618  0.98942405  0.56880567    -0.01070
Br718      Br  0.24375045  0.01025760  0.57142439    -0.01140
Br719      Br  0.19010032  0.95189110  0.37451989    -0.01100
Br720      Br  0.25199147  0.94665668  0.38652930    -0.01080
C721        C  0.49460312  0.08994989  0.14861969    -0.02210
C722        C  0.47955453  0.11223540  0.18141398     0.07470
C723        C  0.49476887  0.12678693  0.21933448    -0.02320
C724        C  0.52198722  0.12533600  0.22018881    -0.02320
C725        C  0.53684289  0.11729404  0.17965330     0.07600
C726        C  0.52174722  0.09638714  0.14462562    -0.02520
Br727      Br  0.53596775  0.06967287  0.09143615    -0.01070
Br728      Br  0.48077475  0.04535552  0.11033796    -0.01140
Br729      Br  0.53741060  0.13729258  0.27969732    -0.01100
Br730      Br  0.47953885  0.14914164  0.27397147    -0.01080
C731        C  0.44267204  0.06015033  0.24001578    -0.02210
C732        C  0.43803918  0.10238940  0.22763191     0.07470
C733        C  0.42424844  0.12490189  0.26240190    -0.02320
C734        C  0.42028748  0.10874451  0.30662049    -0.02320
C735        C  0.42410907  0.06746768  0.31577933     0.07600
C736        C  0.43575361  0.04339195  0.28285068    -0.02520
Br737      Br  0.44066578  0.98569738  0.29590666    -0.01070
Br738      Br  0.45273633  0.01938802  0.19761011    -0.01140
Br739      Br  0.40934398  0.14337792  0.35657291    -0.01100
Br740      Br  0.40262308  0.17079394  0.25300155    -0.01080
C741        C  0.39955704  0.05259296  0.10720150    -0.02210
C742        C  0.40811195  0.05830174  0.06280803     0.07470
C743        C  0.42608979  0.08890285  0.05416541    -0.02320
C744        C  0.43981669  0.10723232  0.09055741    -0.02320
C745        C  0.43345169  0.09947602  0.13789405     0.07600
C746        C  0.41030844  0.07515986  0.14383836    -0.02520
Br747      Br  0.38770396  0.07647464  0.19596851    -0.01070
Br748      Br  0.37065477  0.01615439  0.11606455    -0.01140
Br749      Br  0.46983701  0.13474435  0.06924910    -0.01100
Br750      Br  0.43346541  0.10371107  0.99132897    -0.01080
C751        C  0.49850209  0.78380673  0.76115464    -0.02210
C752        C  0.48204739  0.81801412  0.75673278     0.07470
C753        C  0.49661025  0.85589673  0.75055091    -0.02320
C754        C  0.52435094  0.85676958  0.75361903    -0.02320
C755        C  0.53856983  0.81955222  0.75750752     0.07600
C756        C  0.52323246  0.78995068  0.77850968    -0.02520
Br757      Br  0.52224668  0.79931090  0.84317006    -0.01070
Br758      Br  0.49321028  0.73377614  0.72702171    -0.01140
Br759      Br  0.54141942  0.90868151  0.76235276    -0.01100
Br760      Br  0.48066324  0.90678431  0.73368905    -0.01080
C761        C  0.45213845  0.83929748  0.67320671    -0.02210
C762        C  0.43825837  0.83405943  0.71471717     0.07470
C763        C  0.41247081  0.84932836  0.71121387    -0.02320
C764        C  0.40286917  0.86419974  0.66928209    -0.02320
C765        C  0.41931682  0.88051258  0.63658573     0.07600
C766        C  0.44483164  0.86838994  0.63993481    -0.02520
Br767      Br  0.47070869  0.89023410  0.60077324    -0.01070
Br768      Br  0.47505841  0.79915123  0.65121670    -0.01140
Br769      Br  0.36785476  0.85166174  0.65235242    -0.01100
Br770      Br  0.38636699  0.85007514  0.75624732    -0.01080
C771        C  0.44944656  0.87427446  0.81543722    -0.02210
C772        C  0.43994827  0.83517312  0.80312294     0.07470
C773        C  0.41870965  0.82113196  0.83091538    -0.02320
C774        C  0.40773369  0.84779542  0.86331426    -0.02320
C775        C  0.41372557  0.88972642  0.86246215     0.07600
C776        C  0.43327702  0.90321708  0.83374274    -0.02520
Br777      Br  0.44393164  0.95969948  0.82985084    -0.01070
Br778      Br  0.48122886  0.87754330  0.84802893    -0.01140
Br779      Br  0.38194186  0.82820441  0.90480652    -0.01100
Br780      Br  0.39921511  0.77090636  0.82272486    -0.01080
C781        C  0.23235445  0.44905095  0.52457550    -0.02210
C782        C  0.24500706  0.44860532  0.48227666     0.07470
C783        C  0.23072269  0.45083684  0.44135768    -0.02320
C784        C  0.20409014  0.45353985  0.44276211    -0.02320
C785        C  0.19157018  0.45561109  0.48511832     0.07600
C786        C  0.20585052  0.45341197  0.52601049    -0.02520
Br787      Br  0.18942627  0.45889245  0.58436719    -0.01070
Br788      Br  0.25107943  0.44204633  0.58099409    -0.01140
Br789      Br  0.18480487  0.45266780  0.38629209    -0.01100
Br790      Br  0.24750834  0.45269016  0.38312756    -0.01080
C791        C  0.48840948  0.30980184  0.15219262    -0.02210
C792        C  0.47225151  0.32102047  0.18905155     0.07470
C793        C  0.48580240  0.34164607  0.22448321    -0.02320
C794        C  0.51248364  0.33648698  0.23223145    -0.02320
C795        C  0.52915509  0.32049730  0.19735177     0.07600
C796        C  0.51547216  0.30584083  0.15743459    -0.02520
Br797      Br  0.53332966  0.28890294  0.10305738    -0.01070
Br798      Br  0.47717092  0.31922702  0.09030768    -0.01140
Br799      Br  0.52140117  0.34532562  0.29572038    -0.01100
Br800      Br  0.47110431  0.38994309  0.25028386    -0.01080
C801        C  0.46220235  0.23348728  0.19811367    -0.02210
C802        C  0.44080047  0.25799319  0.18868803     0.07470
C803        C  0.41896433  0.23426647  0.17434573    -0.02320
C804        C  0.42112417  0.19111174  0.16345207    -0.02320
C805        C  0.44434972  0.16956962  0.17354668     0.07600
C806        C  0.46502136  0.19702333  0.17435774    -0.02520
Br807      Br  0.47389829  0.21751625  0.11497666    -0.01070
Br808      Br  0.48730889  0.24581683  0.24314696    -0.01140
Br809      Br  0.39215951  0.16583437  0.13357066    -0.01100
Br810      Br  0.38575622  0.25823346  0.16896145    -0.01080
C811        C  0.44184016  0.30355265  0.28595575    -0.02210
C812        C  0.43124609  0.31653884  0.24317604     0.07470
C813        C  0.40980505  0.34118022  0.24982538    -0.02320
C814        C  0.41100531  0.37188424  0.28297021    -0.02320
C815        C  0.42369390  0.36344809  0.32410338     0.07600
C816        C  0.43983161  0.32925144  0.32518493    -0.02520
Br817      Br  0.45629488  0.31449869  0.38171255    -0.01070
Br818      Br  0.43745692  0.24721985  0.30274272    -0.01140
Br819      Br  0.38867070  0.41789836  0.27751957    -0.01100
Br820      Br  0.37862868  0.31184274  0.26050548    -0.01080
C821        C  0.49329662  0.62109636  0.71988315    -0.02210
C822        C  0.47791836  0.61497170  0.75993398     0.07470
C823        C  0.49268439  0.60004640  0.79750628    -0.02320
C824        C  0.51974658  0.60593640  0.80030054    -0.02320
C825        C  0.53516163  0.61722550  0.76104616     0.07600
C826        C  0.51986457  0.62798205  0.72199057    -0.02520
Br827      Br  0.53272904  0.65355502  0.66695677    -0.01070
Br828      Br  0.48496409  0.59684235  0.66044542    -0.01140
Br829      Br  0.53191689  0.60811325  0.86327201    -0.01100
Br830      Br  0.47778982  0.56789535  0.84591312    -0.01080
C831        C  0.42540696  0.69760881  0.74283623    -0.02210
C832        C  0.44471191  0.67463856  0.76505028     0.07470
C833        C  0.45758041  0.69856408  0.79981284    -0.02320
C834        C  0.45480247  0.74201571  0.80221324    -0.02320
C835        C  0.44456164  0.76477852  0.76411486     0.07600
C836        C  0.42863048  0.74022066  0.73449544    -0.02520
Br837      Br  0.40897205  0.75949532  0.68315201    -0.01070
Br838      Br  0.39199463  0.67515400  0.73195462    -0.01140
Br839      Br  0.46442968  0.76809762  0.85957990    -0.01100
Br840      Br  0.47693235  0.67502246  0.84941755    -0.01080
C841        C  0.43825962  0.56196395  0.70802318    -0.02210
C842        C  0.43781629  0.60600375  0.71355914     0.07470
C843        C  0.43120078  0.62859529  0.67300874    -0.02320
C844        C  0.41827468  0.60912584  0.63653431    -0.02320
C845        C  0.41750045  0.56636997  0.63350654     0.07600
C846        C  0.42827992  0.54289363  0.66839771    -0.02520
Br847      Br  0.42807064  0.48383113  0.66272719    -0.01070
Br848      Br  0.45397842  0.52563141  0.75159451    -0.01140
Br849      Br  0.40361652  0.64137586  0.58797630    -0.01100
Br850      Br  0.44894032  0.67809854  0.65434163    -0.01080
C851        C  0.28919643  0.48794413  0.02787788    -0.02210
C852        C  0.27507135  0.47374522  0.98983373     0.07470
C853        C  0.28794116  0.45977097  0.95095467    -0.02320
C854        C  0.31462886  0.46132846  0.94929315    -0.02320
C855        C  0.32908204  0.47484260  0.98771826     0.07600
C856        C  0.31598373  0.48762751  0.02739375    -0.02520
Br857      Br  0.33406917  0.50316089  0.08264379    -0.01070
Br858      Br  0.27180922  0.50983266  0.08013155    -0.01140
Br859      Br  0.33057812  0.44680144  0.89246452    -0.01100
Br860      Br  0.26902985  0.43640266  0.90017493    -0.01080
C861        C  0.42389594  0.40014978  0.12831112    -0.02210
C862        C  0.41719462  0.39009180  0.08279177     0.07470
C863        C  0.41409578  0.34762888  0.07272885    -0.02320
C864        C  0.42106429  0.31759497  0.10604075    -0.02320
C865        C  0.42684649  0.33010946  0.15305120     0.07600
C866        C  0.41897754  0.37076391  0.16137800    -0.02520
Br867      Br  0.38247878  0.37530682  0.16783775    -0.01070
Br868      Br  0.43090693  0.45457461  0.15006445    -0.01140
Br869      Br  0.42388684  0.26363318  0.07940565    -0.01100
Br870      Br  0.40019739  0.32959362  0.01407869    -0.01080
C871        C  0.42445716  0.59891108  0.88258731    -0.02210
C872        C  0.41127945  0.56152360  0.87655156     0.07470
C873        C  0.40154511  0.55292062  0.83232986    -0.02320
C874        C  0.40895715  0.57733548  0.79453492    -0.02320
C875        C  0.42916540  0.60726223  0.80002711     0.07600
C876        C  0.42868244  0.62416118  0.84479360    -0.02520
Br877      Br  0.40930043  0.67285436  0.85365960    -0.01070
Br878      Br  0.43394712  0.62087819  0.94151161    -0.01140
Br879      Br  0.38518986  0.57582379  0.74349986    -0.01100
Br880      Br  0.37585730  0.51075962  0.82393371    -0.01080
C881        C  0.70676115  0.44417265  0.99968444    -0.02210
C882        C  0.69340404  0.48157500  0.00159011     0.07470
C883        C  0.70732986  0.51881827  0.00519875    -0.02320
C884        C  0.73402655  0.51842146  0.00694840    -0.02320
C885        C  0.74711140  0.48127371  0.00281636     0.07600
C886        C  0.73339938  0.44424982  0.99871683    -0.02520
Br887      Br  0.75094851  0.39353597  0.98806522    -0.01070
Br888      Br  0.68919423  0.39190653  0.00004970    -0.01140
Br889      Br  0.75274025  0.56897250  0.01597610    -0.01100
Br890      Br  0.69056444  0.57115032  0.00464463    -0.01080
C891        C  0.57068758  0.40865738  0.10368791    -0.02210
C892        C  0.59643393  0.40535984  0.09406427     0.07470
C893        C  0.61092593  0.37859988  0.11974112    -0.02320
C894        C  0.59972023  0.35504668  0.15509173    -0.02320
C895        C  0.57234314  0.35059625  0.15987832     0.07600
C896        C  0.55806234  0.38003633  0.13215241    -0.02520
Br897      Br  0.52175785  0.39133104  0.13224708    -0.01070
Br898      Br  0.55330519  0.45677676  0.08139933    -0.01140
Br899      Br  0.62448319  0.32939491  0.19338427    -0.01100
Br900      Br  0.64688786  0.37660202  0.10701783    -0.01080
C901        C  0.60574322  0.59673949  0.87549775    -0.02210
C902        C  0.60350040  0.55386592  0.87727026     0.07470
C903        C  0.58688100  0.53428872  0.84582073    -0.02320
C904        C  0.57369338  0.55692170  0.81218834    -0.02320
C905        C  0.57716210  0.60060422  0.80678970     0.07600
C906        C  0.59190109  0.61986626  0.84271410    -0.02520
Br907      Br  0.59074154  0.67638979  0.85659409    -0.01070
Br908      Br  0.62987092  0.62397947  0.91608872    -0.01140
Br909      Br  0.54912781  0.52537317  0.77769695    -0.01100
Br910      Br  0.58117790  0.47533182  0.84815377    -0.01080
C911        C  0.49899316  0.51726544  0.98153938    -0.02210
C912        C  0.48525232  0.48022384  0.97627332     0.07470
C913        C  0.49829953  0.44334704  0.96853835    -0.02320
C914        C  0.52484339  0.44353712  0.96610497    -0.02320
C915        C  0.53852782  0.48074209  0.97126846     0.07600
C916        C  0.52538886  0.51774290  0.97729348    -0.02520
Br917      Br  0.54317074  0.56998987  0.97834872    -0.01070
Br918      Br  0.48241605  0.56796224  0.99584546    -0.01140
Br919      Br  0.54187325  0.39174188  0.95894408    -0.01100
Br920      Br  0.48033612  0.39133518  0.96608999    -0.01080
loop_ 
_geom_bond_atom_site_label_1 
_geom_bond_atom_site_label_2 
_geom_bond_distance 
_geom_bond_site_symmetry_2 
_ccdc_geom_bond_type 
O1           Cu9   1.983       .  S
O1           C11   1.272       .  A
O2           Cu9   1.992       .  S
O2           C12   1.275       .  A
O3           Cu9   2.034   1_554  S
O3           C13   1.281       .  A
O4           Cu9   2.006       .  S
O4           C14   1.277       .  A
O5          Cu10   2.017   1_556  S
O5           C14   1.279       .  A
O6          Cu10   2.015       .  S
O6           C13   1.278       .  A
O7          Cu10   2.015       .  S
O7           C12   1.278   1_554  A
O8          Cu10   1.971       .  S
O8           C11   1.275   1_554  A
Cu9         Cu10   2.361   1_556  S
C11         C915   1.473       .  S
C12         C882   1.490   1_556  S
C13         C892   1.491       .  S
C14         C902   1.502       .  S
O15         Cu23   2.015       .  S
O15          C25   1.277   1_554  A
O16         Cu23   1.993       .  S
O16          C26   1.275   1_554  A
O17         Cu23   2.030   1_556  S
O17          C27   1.280       .  A
O18         Cu23   2.031       .  S
O18          C28   1.280       .  A
O19         Cu24   1.988   1_554  S
O19          C28   1.273       .  A
O20         Cu24   1.989       .  S
O20          C27   1.274       .  A
O21         Cu24   1.980       .  S
O21          C26   1.274       .  A
O22         Cu24   2.021       .  S
O22          C25   1.279       .  A
Cu23        Cu24   2.353   1_554  S
C25         C855   1.502       .  S
C26         C912   1.473       .  S
C27         C872   1.497       .  S
C28         C862   1.502       .  S
C29         C822   1.652       .  S
C29         C832   1.615       .  S
C29         C842   1.585       .  S
C29         C875   1.631       .  S
C30         C792   1.643       .  S
C30         C802   1.592       .  S
C30         C812   1.622       .  S
C30         C865   1.628       .  S
N31          N32   1.320       .  A
N31          C35   1.350       .  A
N31         Cu39   2.093       .  S
N32          C33   1.341       .  A
N32         Cu38   2.053       .  S
C33          C34   1.381       .  A
C33          H36   1.082       .  S
C34         C782   1.486       .  S
C34          C35   1.391       .  A
C35          H37   1.082       .  S
Cu38         N41   2.053       .  S
Cu39         N49   2.094       .  S
Cu40         N42   2.097       .  S
Cu40         N48   2.097       .  S
N41          N42   1.323       .  A
N41          C45   1.343       .  A
N42          C43   1.348       .  A
C43          C44   1.388       .  A
C43          H46   1.082       .  S
C44         C845   1.477       .  S
C44          C45   1.376       .  A
C45          H47   1.082       .  S
N48          N49   1.325       .  A
N48          C52   1.355       .  A
N49          C50   1.342       .  A
C50          C51   1.385       .  A
C50          H53   1.082       .  S
C51         C815   1.489       .  S
C51          C52   1.388       .  A
C52          H54   1.082       .  S
C55         C752   1.650       .  S
C55         C762   1.616       .  S
C55         C772   1.601       .  S
C55         C835   1.610       .  S
C56         C722   1.660       .  S
C56         C732   1.630       .  S
C56         C745   1.607       .  S
C56         C805   1.626       .  S
N57          N58   1.324       .  A
N57          C61   1.344       .  A
N57         Cu65   2.084       .  S
N58          C59   1.350       .  A
N58         Cu64   2.091   1_545  S
C59          C60   1.389       .  A
C59          H62   1.082       .  S
C60         C735   1.493       .  S
C60          C61   1.385       .  A
C61          H63   1.082       .  S
Cu64         N67   2.088       .  S
Cu65         N75   2.082   1_545  S
Cu66         N68   2.088       .  S
Cu66         N74   2.090       .  S
N67          N68   1.319       .  A
N67          C71   1.349       .  A
N68          C69   1.341       .  A
C69          C70   1.395       .  A
C69          H72   1.080       .  S
C70         C765   1.513       .  S
C70          C71   1.397       .  A
C71          H73   1.080       .  S
N74          N75   1.320       .  A
N74          C78   1.348       .  A
N75          C76   1.347   1_565  A
C76          C77   1.390   1_545  A
C76          H79   1.082       .  S
C77         C712   1.499       .  S
C77          C78   1.391       .  A
C78          H80   1.081       .  S
O81         Cu89   1.989       .  S
O81          C91   1.275   1_545  A
O82         Cu89   2.019       .  S
O82          C92   1.279   1_545  A
O83         Cu89   2.034   1_565  S
O83          C93   1.279       .  A
O84         Cu89   2.049       .  S
O84          C94   1.281   1_556  A
O85         Cu90   1.999   1_544  S
O85          C94   1.277       .  A
O86         Cu90   2.011       .  S
O86          C93   1.277       .  A
O87         Cu90   2.000       .  S
O87          C92   1.276       .  A
O88         Cu90   1.980       .  S
O88          C91   1.273       .  A
Cu89        Cu90   2.358   1_545  S
C91         C702   1.482       .  S
C92         C672   1.479       .  S
C93         C695   1.516       .  S
C94         C682   1.507       .  S
O95        Cu103   1.969       .  S
O95         C105   1.272       .  A
O96        Cu103   1.990       .  S
O96         C106   1.276       .  A
O97        Cu103   1.995       .  S
O97         C107   1.277       .  A
O98        Cu103   1.974   1_554  S
O98         C108   1.274   1_565  A
O99        Cu104   2.006   1_545  S
O99         C108   1.277   1_556  A
O100       Cu104   1.994       .  S
O100        C107   1.275       .  A
O101       Cu104   1.989       .  S
O101        C106   1.275       .  A
O102       Cu104   1.994   1_545  S
O102        C105   1.274   1_545  A
Cu103      Cu104   2.368       .  S
C105        C705   1.480       .  S
C106        C662   1.471       .  S
C107        C775   1.476       .  S
C108        C742   1.478       .  S
C109        C645   1.609       .  S
C109        C652   1.617       .  S
C109        C692   1.607       .  S
C109        C755   1.651       .  S
C110        C622   1.644       .  S
C110        C632   1.595       .  S
C110        C685   1.616       .  S
C110        C725   1.670       .  S
N111        N112   1.323       .  A
N111        C115   1.341       .  A
N111       Cu119   2.064   1_545  S
N112        C113   1.350       .  A
N112       Cu118   2.091   1_545  S
C113        C114   1.387       .  A
C113        H116   1.082       .  S
C114        C635   1.480       .  S
C114        C115   1.379       .  A
C115        H117   1.082       .  S
Cu118       N121   2.091       .  S
Cu119       N129   2.064       .  S
Cu120       N122   2.065       .  S
Cu120       N128   2.064       .  S
N121        N122   1.324       .  A
N121        C125   1.348       .  A
N122        C123   1.343       .  A
C123        C124   1.380       .  A
C123        H126   1.082       .  S
C124        C655   1.480       .  S
C124        C125   1.387       .  A
C125        H127   1.082       .  S
N128        N129   1.320       .  A
N128        C132   1.344       .  A
N129        C130   1.344       .  A
C130        C131   1.382       .  A
C130        H133   1.082   1_565  S
C131        C612   1.474       .  S
C131        C132   1.382       .  A
C132        H134   1.082       .  S
C135        C602   1.634       .  S
C135        C642   1.652       .  S
C135        C825   1.658       .  S
C135        C905   1.605       .  S
C136        C592   1.621       .  S
C136        C625   1.640       .  S
C136        C795   1.645       .  S
C136        C895   1.635       .  S
N137        N138   1.324       .  A
N137        C141   1.342       .  A
N137       Cu145   2.069       .  S
N138        C139   1.347       .  A
N138       Cu144   2.080       .  S
C139        C140   1.383       .  A
C139        H142   1.082       .  S
C140        C595   1.476       .  S
C140        C141   1.379       .  A
C141        H143   1.082       .  S
Cu144       N147   2.079       .  S
Cu145       N155   2.068       .  S
Cu146       N148   2.050       .  S
Cu146       N154   2.051       .  S
N147        N148   1.320       .  A
N147        C151   1.344       .  A
N148        C149   1.341       .  A
C149        C150   1.382       .  A
C149        H152   1.082       .  S
C150        C605   1.484       .  S
C150        C151   1.390       .  A
C151        H153   1.082       .  S
N154        N155   1.319       .  A
N154        C158   1.339       .  A
N155        C156   1.345       .  A
C156        C157   1.387       .  A
C156        H159   1.082       .  S
C157        C582   1.479       .  S
C157        C158   1.381       .  A
C158        H160   1.082       .  S
O161       Cu169   2.007       .  S
O161        C171   1.277       .  A
O162       Cu169   1.978       .  S
O162        C172   1.273       .  A
O163       Cu169   2.008       .  S
O163        C173   1.276       .  A
O164       Cu169   2.027       .  S
O164        C174   1.279       .  A
O165       Cu170   2.020       .  S
O165        C174   1.279       .  A
O166       Cu170   2.030       .  S
O166        C173   1.279       .  A
O167       Cu170   1.960       .  S
O167        C172   1.271       .  A
O168       Cu170   2.011       .  S
O168        C171   1.277       .  A
Cu169      Cu170   2.355       .  S
C171        C785   1.483       .  S
C172        C575   1.463       .  S
C173        C552   1.514       .  S
C174        C562   1.521       .  S
O175       Cu183   1.977       .  S
O175        C185   1.274       .  A
O176       Cu183   1.989       .  S
O176        C186   1.274       .  A
O177       Cu183   1.981       .  S
O177        C187   1.272       .  A
O178       Cu183   1.981       .  S
O178        C188   1.274       .  A
O179       Cu184   2.021       .  S
O179        C188   1.281       .  A
O180       Cu184   2.024       .  S
O180        C187   1.279       .  A
O181       Cu184   1.956       .  S
O181        C186   1.272       .  A
O182       Cu184   2.015       .  S
O182        C185   1.278       .  A
Cu183      Cu184   2.366       .  S
C185        C585   1.475       .  S
C186        C572   1.468       .  S
C187        C535   1.497       .  S
C188        C542   1.482       .  S
C189        C502   1.635       .  S
C189        C512   1.598       .  S
C189        C525   1.571       .  S
C189        C545   1.624       .  S
C190        C472   1.652       .  S
C190        C482   1.641       .  S
C190        C492   1.599       .  S
C190        C532   1.600       .  S
N191        N192   1.323       .  A
N191        C195   1.347       .  A
N191       Cu199   2.070   1_554  S
N192        C193   1.340       .  A
N192       Cu198   2.073       .  S
C193        C194   1.382       .  A
C193        H196   1.082       .  S
C194        C495   1.475       .  S
C194        C195   1.382       .  A
C195        H197   1.082       .  S
Cu198       N201   2.072       .  S
Cu199       N209   2.069       .  S
Cu200       N202   2.057       .  S
Cu200       N208   2.058       .  S
N201        N202   1.319   1_554  A
N201        C205   1.345       .  A
N202        C203   1.343       .  A
C203        C204   1.382   1_556  A
C203        H206   1.082       .  S
C204        C885   1.479       .  S
C204        C205   1.386       .  A
C205        H207   1.082       .  S
N208        N209   1.322       .  A
N208        C212   1.338       .  A
N209        C210   1.347       .  A
C210        C211   1.384       .  A
C210        H213   1.082       .  S
C211        C522   1.474       .  S
C211        C212   1.379       .  A
C212        H214   1.082       .  S
C215        C442   1.606       .  S
C215        C455   1.613       .  S
C215        C462   1.632       .  S
C215        C515   1.630       .  S
C216        C412   1.628       .  S
C216        C422   1.636       .  S
C216        C435   1.603       .  S
C216        C485   1.641       .  S
N217        N218   1.324       .  A
N217        C221   1.343       .  A
N217       Cu225   2.068       .  S
N218        C219   1.349       .  A
N218       Cu224   2.095       .  S
C219        C220   1.386       .  A
C219        H222   1.082       .  S
C220        C452   1.481       .  S
C220        C221   1.379       .  A
C221        H223   1.082       .  S
Cu224       N227   2.095   1_566  S
Cu225       N235   2.067       .  S
Cu226       N228   2.078       .  S
Cu226       N234   2.076   1_544  S
N227        N228   1.323       .  A
N227        C231   1.352       .  A
N228        C229   1.342       .  A
C229        C230   1.383       .  A
C229        H232   1.082       .  S
C230        C425   1.487       .  S
C230        C231   1.390       .  A
C231        H233   1.082       .  S
N234        N235   1.320       .  A
N234        C238   1.346       .  A
N235        C236   1.344       .  A
C236        C237   1.385       .  A
C236        H239   1.082       .  S
C237        C675   1.486       .  S
C237        C238   1.387       .  A
C238        H240   1.081   1_566  S
O241       Cu249   2.009       .  S
O241        C251   1.277       .  A
O242       Cu249   1.993       .  S
O242        C252   1.277       .  A
O243       Cu249   2.012       .  S
O243        C253   1.280       .  A
O244       Cu249   2.004   1_545  S
O244        C254   1.274       .  A
O245       Cu250   2.007       .  S
O245        C254   1.279   1_565  A
O246       Cu250   2.020       .  S
O246        C253   1.277       .  A
O247       Cu250   2.003       .  S
O247        C252   1.276       .  A
O248       Cu250   2.031       .  S
O248        C251   1.280       .  A
Cu249      Cu250   2.363       .  S
C251        C715   1.500       .  S
C252        C405   1.479       .  S
C253        C392   1.484       .  S
C254        C385   1.502       .  S
O255       Cu263   2.011   1_565  S
O255        C265   1.278       .  A
O256       Cu263   1.998   1_565  S
O256        C266   1.277       .  A
O257       Cu263   2.011       .  S
O257        C267   1.277       .  A
O258       Cu263   2.004   1_565  S
O258        C268   1.276       .  A
O259       Cu264   2.033       .  S
O259        C268   1.281       .  A
O260       Cu264   2.019       .  S
O260        C267   1.280   1_565  A
O261       Cu264   1.982       .  S
O261        C266   1.273       .  A
O262       Cu264   1.997       .  S
O262        C265   1.275       .  A
Cu263      Cu264   2.367   1_545  S
C265        C615   1.488       .  S
C266        C402   1.478       .  S
C267        C432   1.491       .  S
C268        C465   1.485       .  S
C269        C362   1.647       .  S
C269        C372   1.642       .  S
C269        C505   1.638       .  S
C269        C565   1.643       .  S
C270        C342   1.589       .  S
C270        C355   1.625       .  S
C270        C475   1.612       .  S
C270        C555   1.616       .  S
N271        N272   1.319   1_556  A
N271        C275   1.344       .  A
N271       Cu279   2.067       .  S
N272        C273   1.349       .  A
N272       Cu278   2.086       .  S
C273        C274   1.390   1_554  A
C273        H276   1.082       .  S
C274        C852   1.489       .  S
C274        C275   1.385       .  A
C275        H277   1.082       .  S
Cu278       N281   2.088       .  S
Cu279       N289   2.067       .  S
Cu280       N282   2.096   1_556  S
Cu280       N288   2.095       .  S
N281        N282   1.324       .  A
N281        C285   1.340       .  A
N282        C283   1.355       .  A
C283        C284   1.389       .  A
C283        H286   1.082       .  S
C284        C352   1.490       .  S
C284        C285   1.385       .  A
C285        H287   1.082       .  S
N288        N289   1.322       .  A
N288        C292   1.348       .  A
N289        C290   1.342       .  A
C290        C291   1.386       .  A
C290        H293   1.081       .  S
C291        C375   1.499       .  S
C291        C292   1.393       .  A
C292        H294   1.081       .  S
C295        C332   1.602       .  S
C295        C365   1.648       .  S
C295        C395   1.602       .  S
C295        C445   1.640       .  S
C296        C325   1.589       .  S
C296        C345   1.608       .  S
C296        C382   1.622       .  S
C296        C415   1.606       .  S
N297        N298   1.320       .  A
N297        C301   1.346       .  A
N297       Cu305   2.074   1_544  S
N298        C299   1.335       .  A
N298       Cu304   2.049   1_545  S
C299        C300   1.383       .  A
C299        H302   1.082       .  S
C300        C322   1.487       .  S
C300        C301   1.391       .  A
C301        H303   1.080       .  S
Cu304       N307   2.048       .  S
Cu305       N315   2.077       .  S
Cu306       N308   2.042       .  S
Cu306       N314   2.043       .  S
N307        N308   1.318   1_554  A
N307        C311   1.342       .  A
N308        C309   1.339       .  A
C309        C310   1.380       .  A
C309        H312   1.082       .  S
C310        C665   1.467       .  S
C310        C311   1.381   1_556  A
C311        H313   1.082       .  S
N314        N315   1.321       .  A
N314        C318   1.339       .  A
N315        C316   1.344       .  A
C316        C317   1.385       .  A
C316        H319   1.082       .  S
C317        C335   1.467       .  S
C317        C318   1.376       .  A
C318        H320   1.082       .  S
C321        C322   1.405       .  A
C321        C326   1.414       .  A
C321       Br328   1.942       .  S
C322        C323   1.401       .  A
C323        C324   1.404       .  A
C323       Br330   1.943       .  S
C324        C325   1.436       .  A
C324       Br329   1.936       .  S
C325        C326   1.458       .  A
C326       Br327   1.962       .  S
C331        C332   1.455       .  A
C331        C336   1.409       .  A
C331       Br338   1.921       .  S
C332        C333   1.464       .  A
C333        C334   1.415       .  A
C333       Br340   1.943       .  S
C334        C335   1.394       .  A
C334       Br339   1.954       .  S
C335        C336   1.387       .  A
C336       Br337   1.941       .  S
C341        C342   1.428       .  A
C341        C346   1.397       .  A
C341       Br348   1.913       .  S
C342        C343   1.421       .  A
C343        C344   1.415       .  A
C343       Br350   1.916       .  S
C344        C345   1.447       .  A
C344       Br349   1.924       .  S
C345        C346   1.436       .  A
C346       Br347   1.924       .  S
C351        C352   1.402       .  A
C351        C356   1.389       .  A
C351       Br358   1.925       .  S
C352        C353   1.417       .  A
C353        C354   1.435       .  A
C353       Br360   1.927       .  S
C354        C355   1.436       .  A
C354       Br359   1.895       .  S
C355        C356   1.416       .  A
C356       Br357   1.929       .  S
C361        C362   1.456       .  A
C361        C366   1.433       .  A
C361       Br368   1.936       .  S
C362        C363   1.458       .  A
C363        C364   1.436       .  A
C363       Br370   1.946       .  S
C364        C365   1.439       .  A
C364       Br369   1.959       .  S
C365        C366   1.421       .  A
C366       Br367   1.956       .  S
C371        C372   1.453       .  A
C371        C376   1.416       .  A
C371       Br378   1.911       .  S
C372        C373   1.474       .  A
C373        C374   1.425       .  A
C373       Br380   1.940       .  S
C374        C375   1.396       .  A
C374       Br379   1.950       .  S
C375        C376   1.395       .  A
C376       Br377   1.947       .  S
C381        C382   1.457       .  A
C381        C386   1.414       .  A
C381       Br388   1.925       .  S
C382        C383   1.437       .  A
C383        C384   1.407       .  A
C383       Br390   1.909       .  S
C384        C385   1.411       .  A
C384       Br389   1.937       .  S
C385        C386   1.405       .  A
C386       Br387   1.943   1_545  S
C391        C392   1.395       .  A
C391        C396   1.401       .  A
C391       Br398   1.939       .  S
C392        C393   1.399       .  A
C393        C394   1.425       .  A
C393       Br400   1.935       .  S
C394        C395   1.451       .  A
C394       Br399   1.923       .  S
C395        C396   1.446       .  A
C396       Br397   1.919       .  S
C401        C402   1.415       .  A
C401        C406   1.406   1_655  A
C401       Br408   1.937       .  S
C402        C403   1.412   1_565  A
C403        C404   1.404   1_655  A
C403       Br410   1.935       .  S
C404        C405   1.412   1_545  A
C404       Br409   1.932       .  S
C405        C406   1.413       .  A
C406       Br407   1.936       .  S
C411        C412   1.459       .  A
C411        C416   1.424   1_655  A
C411       Br418   1.932       .  S
C412        C413   1.429       .  A
C413        C414   1.423   1_655  A
C413       Br420   1.931       .  S
C414        C415   1.441       .  A
C414       Br419   1.926       .  S
C415        C416   1.422       .  A
C416       Br417   1.939       .  S
C421        C422   1.442       .  A
C421        C426   1.426       .  A
C421       Br428   1.911       .  S
C422        C423   1.424       .  A
C423        C424   1.399       .  A
C423       Br430   1.941       .  S
C424        C425   1.402       .  A
C424       Br429   1.925       .  S
C425        C426   1.410       .  A
C426       Br427   1.937       .  S
C431        C432   1.403       .  A
C431        C436   1.412       .  A
C431       Br438   1.943   1_545  S
C432        C433   1.400       .  A
C433        C434   1.421       .  A
C433       Br440   1.938       .  S
C434        C435   1.447       .  A
C434       Br439   1.928       .  S
C435        C436   1.463       .  A
C436       Br437   1.969       .  S
C441        C442   1.433       .  A
C441        C446   1.424   1_655  A
C441       Br448   1.949       .  S
C442        C443   1.445       .  A
C443        C444   1.426   1_655  A
C443       Br450   1.966       .  S
C444        C445   1.462       .  A
C444       Br449   1.969       .  S
C445        C446   1.438       .  A
C446       Br447   1.936       .  S
C451        C452   1.392       .  A
C451        C456   1.413       .  A
C451       Br458   1.941       .  S
C452        C453   1.393       .  A
C453        C454   1.416       .  A
C453       Br460   1.945       .  S
C454        C455   1.457       .  A
C454       Br459   1.924       .  S
C455        C456   1.456       .  A
C456       Br457   1.925       .  S
C461        C462   1.465       .  A
C461        C466   1.410       .  A
C461       Br468   1.939       .  S
C462        C463   1.459       .  A
C463        C464   1.424       .  A
C463       Br470   1.918       .  S
C464        C465   1.389       .  A
C464       Br469   1.935       .  S
C465        C466   1.390       .  A
C466       Br467   1.946       .  S
C471        C472   1.467   1_455  A
C471        C476   1.432       .  A
C471       Br478   1.951   1_455  S
C472        C473   1.429   1_655  A
C473        C474   1.415       .  A
C473       Br480   1.943   1_455  S
C474        C475   1.437       .  A
C474       Br479   1.915       .  S
C475        C476   1.415       .  A
C476       Br477   1.934       .  S
C481        C482   1.447       .  A
C481        C486   1.453       .  A
C481       Br488   1.929       .  S
C482        C483   1.430       .  A
C483        C484   1.408       .  A
C483       Br490   1.941       .  S
C484        C485   1.439       .  A
C484       Br489   1.923       .  S
C485        C486   1.455       .  A
C486       Br487   1.936       .  S
C491        C492   1.448       .  A
C491        C496   1.393       .  A
C491       Br498   1.941       .  S
C492        C493   1.443       .  A
C493        C494   1.420       .  A
C493       Br500   1.922       .  S
C494        C495   1.401       .  A
C494       Br499   1.932       .  S
C495        C496   1.393       .  A
C496       Br497   1.939       .  S
C501        C502   1.410       .  A
C501        C506   1.423   1_655  A
C501       Br508   1.913       .  S
C502        C503   1.449       .  A
C503        C504   1.445   1_655  A
C503       Br510   1.949       .  S
C504        C505   1.453       .  A
C504       Br509   1.914       .  S
C505        C506   1.450       .  A
C506       Br507   1.930       .  S
C511        C512   1.411       .  A
C511        C516   1.380       .  A
C511       Br518   1.945       .  S
C512        C513   1.429       .  A
C513        C514   1.441       .  A
C513       Br520   1.941       .  S
C514        C515   1.457       .  A
C514       Br519   1.941       .  S
C515        C516   1.442       .  A
C516       Br517   1.907       .  S
C521        C522   1.400       .  A
C521        C526   1.402       .  A
C521       Br528   1.940       .  S
C522        C523   1.403       .  A
C523        C524   1.411       .  A
C523       Br530   1.934       .  S
C524        C525   1.443       .  A
C524       Br529   1.946       .  S
C525        C526   1.440       .  A
C526       Br527   1.947       .  S
C531        C532   1.453       .  A
C531        C536   1.421       .  A
C531       Br538   1.942       .  S
C532        C533   1.441       .  A
C533        C534   1.408       .  A
C533       Br540   1.929       .  S
C534        C535   1.412       .  A
C534       Br539   1.948       .  S
C535        C536   1.405       .  A
C536       Br537   1.939       .  S
C541        C542   1.389       .  A
C541        C546   1.407       .  A
C541       Br548   1.943       .  S
C542        C543   1.408       .  A
C543        C544   1.413       .  A
C543       Br550   1.938       .  S
C544        C545   1.436       .  A
C544       Br549   1.924       .  S
C545        C546   1.457       .  A
C546       Br547   1.929       .  S
C551        C552   1.429       .  A
C551        C556   1.429       .  A
C551       Br558   1.940       .  S
C552        C553   1.417       .  A
C553        C554   1.394       .  A
C553       Br560   1.925       .  S
C554        C555   1.414       .  A
C554       Br559   1.934       .  S
C555        C556   1.429       .  A
C556       Br557   1.916       .  S
C561        C562   1.409       .  A
C561        C566   1.435       .  A
C561       Br568   1.951       .  S
C562        C563   1.403       .  A
C563        C564   1.413       .  A
C563       Br570   1.943       .  S
C564        C565   1.447       .  A
C564       Br569   1.917       .  S
C565        C566   1.474       .  A
C566       Br567   1.949       .  S
C571        C572   1.413       .  A
C571        C576   1.397   1_655  A
C571       Br578   1.942       .  S
C572        C573   1.408       .  A
C573        C574   1.396   1_655  A
C573       Br580   1.929       .  S
C574        C575   1.414       .  A
C574       Br579   1.939       .  S
C575        C576   1.413       .  A
C576       Br577   1.935       .  S
C581        C582   1.413       .  A
C581        C586   1.402       .  A
C581       Br588   1.935       .  S
C582        C583   1.413       .  A
C583        C584   1.408       .  A
C583       Br590   1.931       .  S
C584        C585   1.411       .  A
C584       Br589   1.932       .  S
C585        C586   1.411       .  A
C586       Br587   1.937       .  S
C591        C592   1.456       .  A
C591        C596   1.416       .  A
C591       Br598   1.918       .  S
C592        C593   1.459       .  A
C593        C594   1.410       .  A
C593       Br600   1.927       .  S
C594        C595   1.388       .  A
C594       Br599   1.946       .  S
C595        C596   1.391       .  A
C596       Br597   1.942       .  S
C601        C602   1.469       .  A
C601        C606   1.425       .  A
C601       Br608   1.946       .  S
C602        C603   1.430       .  A
C603        C604   1.395       .  A
C603       Br610   1.925       .  S
C604        C605   1.392       .  A
C604       Br609   1.933       .  S
C605        C606   1.406       .  A
C606       Br607   1.947       .  S
C611        C612   1.406       .  A
C611        C616   1.407       .  A
C611       Br618   1.933       .  S
C612        C613   1.407   1_565  A
C613        C614   1.408       .  A
C613       Br620   1.933       .  S
C614        C615   1.418   1_545  A
C614       Br619   1.932       .  S
C615        C616   1.420       .  A
C616       Br617   1.935       .  S
C621        C622   1.398       .  A
C621        C626   1.400       .  A
C621       Br628   1.849       .  S
C622        C623   1.454       .  A
C623        C624   1.459       .  A
C623       Br630   1.942       .  S
C624        C625   1.469       .  A
C624       Br629   1.937       .  S
C625        C626   1.435       .  A
C626       Br627   1.921       .  S
C631        C632   1.446       .  A
C631        C636   1.414       .  A
C631       Br638   1.923       .  S
C632        C633   1.441       .  A
C633        C634   1.410       .  A
C633       Br640   1.910       .  S
C634        C635   1.397       .  A
C634       Br639   1.939       .  S
C635        C636   1.397       .  A
C636       Br637   1.939   1_545  S
C641        C642   1.415       .  A
C641        C646   1.416       .  A
C641       Br648   1.910       .  S
C642        C643   1.459       .  A
C643        C644   1.468       .  A
C643       Br650   1.904       .  S
C644        C645   1.448       .  A
C644       Br649   1.934       .  S
C645        C646   1.387       .  A
C646       Br647   1.941       .  S
C651        C652   1.418       .  A
C651        C656   1.395       .  A
C651       Br658   1.912       .  S
C652        C653   1.460       .  A
C653        C654   1.426       .  A
C653       Br660   1.931       .  S
C654        C655   1.407       .  A
C654       Br659   1.942       .  S
C655        C656   1.396       .  A
C656       Br657   1.924       .  S
C661        C662   1.412       .  A
C661        C666   1.401       .  A
C661       Br668   1.931       .  S
C662        C663   1.414       .  A
C663        C664   1.404       .  A
C663       Br670   1.935   1_565  S
C664        C665   1.409       .  A
C664       Br669   1.933   1_565  S
C665        C666   1.408       .  A
C666       Br667   1.934       .  S
C671        C672   1.411       .  A
C671        C676   1.409       .  A
C671       Br678   1.933       .  S
C672        C673   1.409   1_565  A
C673        C674   1.409       .  A
C673       Br680   1.932       .  S
C674        C675   1.414   1_545  A
C674       Br679   1.931       .  S
C675        C676   1.414       .  A
C676       Br677   1.932       .  S
C681        C682   1.414       .  A
C681        C686   1.429       .  A
C681       Br688   1.933   1_554  S
C682        C683   1.403       .  A
C683        C684   1.412       .  A
C683       Br690   1.948       .  S
C684        C685   1.453       .  A
C684       Br689   1.940       .  S
C685        C686   1.444       .  A
C686       Br687   1.929       .  S
C691        C692   1.431       .  A
C691        C696   1.417       .  A
C691       Br698   1.912       .  S
C692        C693   1.435       .  A
C693        C694   1.421       .  A
C693       Br700   1.926       .  S
C694        C695   1.416       .  A
C694       Br699   1.938       .  S
C695        C696   1.418       .  A
C696       Br697   1.947       .  S
C701        C702   1.417       .  A
C701        C706   1.401       .  A
C701       Br708   1.935       .  S
C702        C703   1.416   1_565  A
C703        C704   1.404       .  A
C703       Br710   1.937       .  S
C704        C705   1.415   1_545  A
C704       Br709   1.935       .  S
C705        C706   1.416       .  A
C706       Br707   1.947       .  S
C711        C712   1.415       .  A
C711        C716   1.413       .  A
C711       Br718   1.933   1_565  S
C712        C713   1.416       .  A
C713        C714   1.414       .  A
C713       Br720   1.933       .  S
C714        C715   1.417       .  A
C714       Br719   1.935       .  S
C715        C716   1.418       .  A
C716       Br717   1.936       .  S
C721        C722   1.453       .  A
C721        C726   1.452       .  A
C721       Br728   1.967       .  S
C722        C723   1.441       .  A
C723        C724   1.438       .  A
C723       Br730   1.943       .  S
C724        C725   1.455       .  A
C724       Br729   1.954       .  S
C725        C726   1.458       .  A
C726       Br727   1.946       .  S
C731        C732   1.451       .  A
C731        C736   1.420       .  A
C731       Br738   1.904       .  S
C732        C733   1.460       .  A
C733        C734   1.417       .  A
C733       Br740   1.914       .  S
C734        C735   1.393       .  A
C734       Br739   1.945       .  S
C735        C736   1.395       .  A
C736       Br737   1.945   1_545  S
C741        C742   1.394       .  A
C741        C746   1.412       .  A
C741       Br748   1.945       .  S
C742        C743   1.397       .  A
C743        C744   1.412       .  A
C743       Br750   1.947   1_554  S
C744        C745   1.453       .  A
C744       Br749   1.924       .  S
C745        C746   1.462       .  A
C746       Br747   1.948       .  S
C751        C752   1.429       .  A
C751        C756   1.408       .  A
C751       Br758   1.932       .  S
C752        C753   1.463       .  A
C753        C754   1.466       .  A
C753       Br760   1.935       .  S
C754        C755   1.441       .  A
C754       Br759   1.929       .  S
C755        C756   1.402       .  A
C756       Br757   1.920       .  S
C761        C762   1.436       .  A
C761        C766   1.417       .  A
C761       Br768   1.910       .  S
C762        C763   1.457       .  A
C763        C764   1.414       .  A
C763       Br770   1.918       .  S
C764        C765   1.402       .  A
C764       Br769   1.948       .  S
C765        C766   1.410       .  A
C766       Br767   1.925       .  S
C771        C772   1.413       .  A
C771        C776   1.391       .  A
C771       Br778   1.924       .  S
C772        C773   1.463       .  A
C773        C774   1.420       .  A
C773       Br780   1.942       .  S
C774        C775   1.404       .  A
C774       Br779   1.939       .  S
C775        C776   1.406       .  A
C776       Br777   1.929       .  S
C781        C782   1.414       .  A
C781        C786   1.408       .  A
C781       Br788   1.933       .  S
C782        C783   1.412       .  A
C783        C784   1.410       .  A
C783       Br790   1.931       .  S
C784        C785   1.414       .  A
C784       Br789   1.934       .  S
C785        C786   1.411       .  A
C786       Br787   1.934       .  S
C791        C792   1.432       .  A
C791        C796   1.442       .  A
C791       Br798   1.929       .  S
C792        C793   1.420       .  A
C793        C794   1.436       .  A
C793       Br800   1.924       .  S
C794        C795   1.455       .  A
C794       Br799   1.935       .  S
C795        C796   1.447       .  A
C796       Br797   1.942       .  S
C801        C802   1.417       .  A
C801        C806   1.389       .  A
C801       Br808   1.900       .  S
C802        C803   1.441       .  A
C803        C804   1.452       .  A
C803       Br810   1.932       .  S
C804        C805   1.448       .  A
C804       Br809   1.931       .  S
C805        C806   1.405       .  A
C806       Br807   1.926       .  S
C811        C812   1.434       .  A
C811        C816   1.428       .  A
C811       Br818   1.920       .  S
C812        C813   1.411       .  A
C813        C814   1.396       .  A
C813       Br820   1.924       .  S
C814        C815   1.402       .  A
C814       Br819   1.927       .  S
C815        C816   1.413       .  A
C816       Br817   1.927       .  S
C821        C822   1.447       .  A
C821        C826   1.418       .  A
C821       Br828   1.956       .  S
C822        C823   1.432       .  A
C823        C824   1.441       .  A
C823       Br830   1.936       .  S
C824        C825   1.461       .  A
C824       Br829   1.949       .  S
C825        C826   1.440       .  A
C826       Br827   1.943       .  S
C831        C832   1.425       .  A
C831        C836   1.424       .  A
C831       Br838   1.926       .  S
C832        C833   1.443       .  A
C833        C834   1.432       .  A
C833       Br840   1.934       .  S
C834        C835   1.446       .  A
C834       Br839   1.944       .  S
C835        C836   1.440       .  A
C836       Br837   1.930       .  S
C841        C842   1.449       .  A
C841        C846   1.411       .  A
C841       Br848   1.933       .  S
C842        C843   1.442       .  A
C843        C844   1.409       .  A
C843       Br850   1.944       .  S
C844        C845   1.401       .  A
C844       Br849   1.933       .  S
C845        C846   1.400       .  A
C846       Br847   1.938       .  S
C851        C852   1.410   1_554  A
C851        C856   1.414       .  A
C851       Br858   1.933       .  S
C852        C853   1.410       .  A
C853        C854   1.410       .  A
C853       Br860   1.935       .  S
C854        C855   1.421       .  A
C854       Br859   1.934       .  S
C855        C856   1.423   1_556  A
C856       Br857   1.935       .  S
C861        C862   1.414       .  A
C861        C866   1.390       .  A
C861       Br868   1.920       .  S
C862        C863   1.426       .  A
C863        C864   1.434       .  A
C863       Br870   1.949       .  S
C864        C865   1.464       .  A
C864       Br869   1.936       .  S
C865        C866   1.418       .  A
C866       Br867   1.945       .  S
C871        C872   1.410       .  A
C871        C876   1.401       .  A
C871       Br878   1.928       .  S
C872        C873   1.416       .  A
C873        C874   1.422       .  A
C873       Br880   1.937       .  S
C874        C875   1.447       .  A
C874       Br879   1.942       .  S
C875        C876   1.423       .  A
C876       Br877   1.920       .  S
C881        C882   1.419   1_556  A
C881        C886   1.406       .  A
C881       Br888   1.936   1_556  S
C882        C883   1.419       .  A
C883        C884   1.409       .  A
C883       Br890   1.935       .  S
C884        C885   1.409       .  A
C884       Br889   1.933       .  S
C885        C886   1.408   1_554  A
C886       Br887   1.934       .  S
C891        C892   1.396       .  A
C891        C896   1.420       .  A
C891       Br898   1.941       .  S
C892        C893   1.386       .  A
C893        C894   1.422       .  A
C893       Br900   1.940       .  S
C894        C895   1.459       .  A
C894       Br899   1.915       .  S
C895        C896   1.470       .  A
C896       Br897   1.955       .  S
C901        C902   1.407       .  A
C901        C906   1.424       .  A
C901       Br908   1.942       .  S
C902        C903   1.413       .  A
C903        C904   1.415       .  A
C903       Br910   1.949       .  S
C904        C905   1.447       .  A
C904       Br909   1.925       .  S
C905        C906   1.442       .  A
C906       Br907   1.893       .  S
C911        C912   1.412       .  A
C911        C916   1.400       .  A
C911       Br918   1.930       .  S
C912        C913   1.414       .  A
C913        C914   1.403       .  A
C913       Br920   1.939       .  S
C914        C915   1.415       .  A
C914       Br919   1.938       .  S
C915        C916   1.412       .  A
C916       Br917   1.940       .  S
