geometry optimzed in LAMMPS
_audit_creation_date              2020-12-01 
_audit_creation_method            'lammps2cif' 
_symmetry_space_group_name_H-M    'P1' 
_symmetry_Int_Tables_number       1 
_symmetry_cell_setting            triclinic 
loop_ 
_symmetry_equiv_pos_as_xyz 
  x,y,z 
_cell_length_a                    52.96977131 
_cell_length_b                    52.98042361186866 
_cell_length_c                    73.97982196983017 
_cell_angle_alpha                 89.80389031571912 
_cell_angle_beta                  90.19831038735845 
_cell_angle_gamma                 119.8970802396031 
loop_ 
_atom_site_label 
_atom_site_type_symbol 
_atom_site_fract_x 
_atom_site_fract_y 
_atom_site_fract_z 
_atom_site_charge 
C1          C  0.05190275  0.19117450  0.09098857     0.03100
C2          C  0.02554281  0.19136435  0.09018709    -0.13000
C3          C  0.00159964  0.16957027  0.08079301     0.00600
C4          C  0.00443560  0.14792409  0.07172460    -0.11600
C5          C  0.03069250  0.14745069  0.07245451     0.03100
C6          C  0.05442454  0.16917044  0.08209596    -0.11000
H7          H  0.02337334  0.20796760  0.09739317     0.08700
H8          H  0.48779571  0.13452687  0.06052760     0.06200
H9          H  0.07469926  0.16883672  0.08278467     0.06100
C10         C  0.38066267  0.35043184  0.07272160     0.03100
C11         C  0.36014392  0.35350874  0.08304606    -0.13000
C12         C  0.33817513  0.32949407  0.09239771     0.00600
C13         C  0.33721856  0.30257345  0.09166108    -0.11600
C14         C  0.35805064  0.29957803  0.08178810     0.03100
C15         C  0.37956129  0.32346013  0.07227999    -0.11000
H16         H  0.36189259  0.37467757  0.08433464     0.08700
H17         H  0.32078525  0.28418081  0.09923940     0.06200
H18         H  0.39569764  0.32110523  0.06463691     0.06100
C19         C  0.18052298  0.50495808  0.07461916     0.03100
C20         C  0.20653718  0.03008169  0.07519707    -0.13000
C21         C  0.22980206  0.03273954  0.08567626     0.00600
C22         C  0.22688133  0.00838574  0.09507142    -0.11600
C23         C  0.20207675  0.48578526  0.09586998     0.03100
C24         C  0.17869952  0.48176816  0.08493190    -0.11000
H25         H  0.20909826  0.04871891  0.06758813     0.08700
H26         H  0.24486454  0.01016938  0.10309003     0.06200
H27         H  0.15932322  0.46047919  0.08429612     0.06100
C28         C  0.33902060  0.14183060  0.08293764     0.80200
N29         N  0.33827725  0.16705238  0.08381151    -0.78100
C30         C  0.36320357  0.19321416  0.08329470     0.82600
N31         N  0.38912048  0.19401896  0.08174660    -0.78100
C32         C  0.39036235  0.16908796  0.08069598     0.82700
N33         N  0.36517633  0.14306524  0.08143462    -0.79800
C34         C  0.38303822  0.49389709  0.93069568     0.03100
C35         C  0.38029532  0.01417892  0.92024997    -0.13000
C36         C  0.35650692  0.01147220  0.91026635     0.00600
C37         C  0.33588703  0.48787182  0.91013017    -0.11600
C38         C  0.33344616  0.46390287  0.91969487     0.03100
C39         C  0.35693609  0.46712036  0.93019468    -0.11000
H40         H  0.40045911  0.03485419  0.92046688     0.08700
H41         H  0.31765220  0.48546280  0.90210212     0.06200
H42         H  0.35486418  0.44892323  0.93809875     0.06100
C43         C  0.21391630  0.16583417  0.90302337     0.03100
C44         C  0.19435220  0.14310111  0.91433771    -0.13000
C45         C  0.17435131  0.14644383  0.92507583     0.00600
C46         C  0.17371121  0.17262654  0.92412359    -0.11600
C47         C  0.19329306  0.19553554  0.91306616     0.03100
C48         C  0.21290060  0.19180393  0.90229345    -0.11000
H49         H  0.19492327  0.12295620  0.91494851     0.08700
H50         H  0.15823368  0.17539514  0.93219957     0.06200
H51         H  0.22789279  0.20945411  0.89363459     0.06100
C52         C  0.22203016  0.35719321  0.91721829     0.80200
N53         N  0.22096245  0.33108549  0.91580254    -0.78100
C54         C  0.19499932  0.30584639  0.91499115     0.82600
N55         N  0.17000494  0.30700034  0.91575074    -0.78100
C56         C  0.17059057  0.33282998  0.91723057     0.82700
N57         N  0.19670688  0.35784019  0.91781542    -0.79800
C58         C  0.01122737  0.31053574  0.90896767     0.03100
C59         C  0.00724148  0.33074447  0.91898477    -0.13000
C60         C  0.03077201  0.35319352  0.92835970     0.00600
C61         C  0.05816821  0.35517520  0.92796758    -0.11600
C62         C  0.06218344  0.33471134  0.91836671     0.03100
C63         C  0.03860645  0.31241463  0.90898447    -0.11000
H64         H  0.48618875  0.33212166  0.91829409     0.08700
H65         H  0.07613308  0.37224137  0.93549391     0.06200
H66         H  0.04163607  0.29653440  0.90153613     0.06100
Zn67       Zn  0.02886535  0.46337883  0.01084290     1.49700
Zn68       Zn  0.06743310  0.03440491  0.00944277     1.49400
Zn69       Zn  0.02884066  0.49835715  0.97516676     1.49100
Zn70       Zn  0.49920140  0.49961499  0.01274347     1.49500
O71         O  0.03045902  0.49886885  0.00165403    -1.84200
O72         O  0.06462225  0.47257677  0.02566314    -0.74800
O73         O  0.09219462  0.05833439  0.98855638    -0.74600
O74         O  0.02672046  0.46195625  0.96548251    -0.74100
O75         O  0.09190217  0.02286301  0.02403918    -0.74800
O76         O  0.02660297  0.43773759  0.99004811    -0.74400
O77         O  0.06662054  0.03450801  0.96443950    -0.75000
O78         O  0.47474548  0.50152877  0.99265991    -0.74400
O79         O  0.05844188  0.06042040  0.02466190    -0.75100
O80         O  0.49636373  0.49897060  0.96769536    -0.74500
O81         O  0.01021550  0.03555465  0.02714023    -0.75000
O82         O  0.47322682  0.46367615  0.02698756    -0.74900
O83         O  0.49728586  0.43933840  0.02821925    -0.74700
C84         C  0.08772112  0.49646712  0.02913500     0.77100
C85         C  0.08919091  0.05566430  0.97147459     0.77600
C86         C  0.02589735  0.43984200  0.97290922     0.76600
C87         C  0.47577123  0.50048942  0.97552271     0.76900
C88         C  0.03478188  0.05775374  0.03075288     0.78100
C89         C  0.47538372  0.44200480  0.03234948     0.77100
C90         C  0.34818956  0.33451118  0.74349495     0.03100
C91         C  0.34581066  0.31044864  0.75295903    -0.13000
C92         C  0.36902504  0.31305751  0.76363814     0.00600
C93         C  0.39496309  0.34017131  0.76429970    -0.11600
C94         C  0.39781383  0.36416729  0.75446802     0.03100
C95         C  0.37424336  0.36120835  0.74414751    -0.11000
H96         H  0.32607519  0.28960071  0.75156317     0.08700
H97         H  0.41316391  0.34269768  0.77239682     0.06200
H98         H  0.37645266  0.37930723  0.73608032     0.06100
C99         C  0.19707628  0.47464218  0.73889366     0.03100
C100        C  0.22112674  0.49509338  0.74895137    -0.13000
C101        C  0.21644476  0.01202545  0.76392297     0.00600
C102        C  0.18995033  0.01194304  0.76465490    -0.11600
C103        C  0.16808420  0.49492657  0.75066675     0.03100
C104        C  0.17054479  0.47451633  0.73995485    -0.11000
H105        H  0.24176687  0.49559540  0.74786268     0.08700
H106        H  0.18795859  0.02740335  0.77323381     0.06200
H107        H  0.15183798  0.45866970  0.73232916     0.06100
C108        C  0.01324652  0.15898654  0.76408833     0.03100
C109        C  0.03388683  0.18219064  0.75340336    -0.13000
C110        C  0.05418555  0.17888512  0.74284297     0.00600
C111        C  0.05352066  0.15204199  0.74309488    -0.11600
C112        C  0.03282079  0.12872002  0.75337169     0.03100
C113        C  0.01305888  0.13237837  0.76397176    -0.11000
H114        H  0.03408121  0.20271452  0.75326875     0.08700
H115        H  0.06908933  0.14915154  0.73519326     0.06200
H116        H  0.49370550  0.11296326  0.76989821     0.06100
C117        C  0.00701849  0.46911455  0.74980984     0.80200
N118        N  0.00731826  0.49485243  0.74915364    -0.78100
C119        C  0.03228451  0.01923806  0.75341158     0.82600
N120        N  0.05747100  0.01838467  0.75358384    -0.78100
C121        C  0.05846175  0.49461079  0.75053088     0.82700
N122        N  0.03267733  0.46916726  0.75054704    -0.79800
Zn123      Zn  0.39849675  0.19557580  0.82675147     1.49700
Zn124      Zn  0.36549471  0.12603015  0.82765706     1.49400
Zn125      Zn  0.36158269  0.16100063  0.86178757     1.49100
Zn126      Zn  0.32963144  0.15997699  0.82460232     1.49500
O127        O  0.36375660  0.16057440  0.83527743    -1.84200
O128        O  0.42445629  0.18556727  0.81251032    -0.74800
O129        O  0.36513945  0.10258777  0.84901145    -0.74600
O130        O  0.39632081  0.19733655  0.87195311    -0.74100
O131        O  0.40246483  0.13724657  0.81404287    -0.74800
O132        O  0.42154032  0.22082169  0.84761768    -0.74400
O133        O  0.36127180  0.12565661  0.87291326    -0.75000
O134        O  0.30284372  0.15992517  0.84389837    -0.74400
O135        O  0.33125873  0.09978379  0.81164102    -0.75100
O136        O  0.32492885  0.16095195  0.86964123    -0.74500
O137        O  0.30728221  0.12414899  0.80951690    -0.75000
O138        O  0.34043265  0.19497645  0.80860522    -0.74900
O139        O  0.38854791  0.21984776  0.81051576    -0.74700
C140        C  0.42341408  0.16163771  0.80885143     0.77100
C141        C  0.36337111  0.10475703  0.86600442     0.77600
C142        C  0.41822599  0.21905398  0.86470783     0.76600
C143        C  0.30379389  0.16060638  0.86109982     0.76900
C144        C  0.31012612  0.10234385  0.80551990     0.78100
C145        C  0.36479509  0.21701029  0.80442010     0.77100
C146        C  0.20790965  0.18629040  0.59317181     0.03100
C147        C  0.18389313  0.16452552  0.58369841    -0.13000
C148        C  0.18702803  0.14503840  0.57242993     0.00600
C149        C  0.21443640  0.14734933  0.57067452    -0.11600
C150        C  0.23844018  0.16831545  0.58042144     0.03100
C151        C  0.23509809  0.18778820  0.59160216    -0.11000
H152        H  0.16252323  0.16216345  0.58545429     0.08700
H153        H  0.21705249  0.13246876  0.56190002     0.06200
H154        H  0.25364632  0.20388281  0.59921898     0.06100
C155        C  0.03112077  0.34720346  0.57384034     0.03100
C156        C  0.00546546  0.32024076  0.57249099    -0.13000
C157        C  0.50470685  0.29625923  0.57877117     0.00600
C158        C  0.02656855  0.29777562  0.59101745    -0.11600
C159        C  0.05285429  0.32445055  0.59209667     0.03100
C160        C  0.05485662  0.34917133  0.58359754    -0.11000
H161        H  0.48823867  0.31821336  0.56217035     0.08700
H162        H  0.02432043  0.27880383  0.59807269     0.06200
H163        H  0.07485215  0.36990833  0.58458737     0.06100
C164        C  0.38682265  0.49586188  0.57568105     0.03100
C165        C  0.38605176  0.02198432  0.57480093    -0.13000
C166        C  0.36549330  0.02472874  0.58508648     0.00600
C167        C  0.34426356  0.49976787  0.59596798    -0.11600
C168        C  0.34664306  0.47453253  0.59726473     0.03100
C169        C  0.36815002  0.47278759  0.58708668    -0.11000
H170        H  0.40227679  0.04064890  0.56731818     0.08700
H171        H  0.32826683  0.00316854  0.60233900     0.06200
H172        H  0.37070849  0.45381398  0.58832900     0.06100
C173        C  0.39631522  0.18643328  0.58160509     0.80200
N174        N  0.37098306  0.18706206  0.58124476    -0.78100
C175        C  0.34484888  0.16221328  0.58268503     0.82600
N176        N  0.34431936  0.13644372  0.58447650    -0.78100
C177        C  0.36940255  0.13541302  0.58514337     0.82700
N178        N  0.39531554  0.16047597  0.58363446    -0.79800
Zn179      Zn  0.16393952  0.29207798  0.65862584     1.49700
Zn180      Zn  0.19771505  0.32704158  0.69451693     1.49400
Zn181      Zn  0.23325068  0.32432790  0.66059380     1.49100
Zn182      Zn  0.20076915  0.36169937  0.65841098     1.49500
O183        O  0.19880966  0.32625497  0.66802935    -1.84200
O184        O  0.13862408  0.26742208  0.67940369    -0.74800
O185        O  0.23281847  0.32753960  0.70571627    -0.74600
O186        O  0.22235252  0.28777900  0.64691201    -0.74100
O187        O  0.16168393  0.29183521  0.70413621    -0.74800
O188        O  0.17437867  0.26686215  0.64344614    -0.74400
O189        O  0.25723067  0.32552205  0.68200719    -0.75000
O190        O  0.23752163  0.38475458  0.64412984    -0.74400
O191        O  0.19836867  0.36326100  0.70329930    -0.75100
O192        O  0.25927389  0.35806098  0.64445422    -0.74500
O193        O  0.20142658  0.38788905  0.67833096    -0.75000
O194        O  0.16631404  0.35242468  0.64226842    -0.74900
O195        O  0.14072299  0.30405686  0.64255354    -0.74700
C196        C  0.14047688  0.26987318  0.69658212     0.77100
C197        C  0.25465434  0.32701689  0.69901172     0.77600
C198        C  0.19844021  0.26762547  0.64057065     0.76600
C199        C  0.25834244  0.38063241  0.63958612     0.76900
C200        C  0.20039282  0.38563887  0.69548793     0.78100
C201        C  0.14430236  0.32856686  0.63730283     0.77100
C202        C  0.36223264  0.31527502  0.40727966     0.03100
C203        C  0.38611132  0.33586844  0.41738871    -0.13000
C204        C  0.38377139  0.35684728  0.42761426     0.00600
C205        C  0.35749670  0.35715201  0.42787048    -0.11600
C206        C  0.33343466  0.33642643  0.41807155     0.03100
C207        C  0.33581421  0.31539026  0.40798294    -0.11000
H208        H  0.40657948  0.33589305  0.41709512     0.08700
H209        H  0.35565644  0.37320071  0.43594149     0.06200
H210        H  0.31703848  0.29913196  0.40059865     0.06100
C211        C  0.03444822  0.14702762  0.42885772     0.03100
C212        C  0.06044148  0.17403949  0.42853930    -0.13000
C213        C  0.06241624  0.19753825  0.41860460     0.00600
C214        C  0.03833839  0.19383152  0.40859244    -0.11600
C215        C  0.01227217  0.16709516  0.40863606     0.03100
C216        C  0.01028549  0.14376966  0.41887732    -0.11000
H217        H  0.07927714  0.17684659  0.43604624     0.08700
H218        H  0.03996669  0.21172615  0.40054570     0.06200
H219        H  0.48859846  0.11880451  0.41467094     0.06100
C220        C  0.21918015  0.01818531  0.40861709     0.03100
C221        C  0.19910844  0.02013823  0.41995008    -0.13000
C222        C  0.17833332  0.99554739  0.42942663     0.00600
C223        C  0.17906985  0.47121311  0.42977345    -0.11600
C224        C  0.19894226  0.46846566  0.41878614     0.03100
C225        C  0.21917976  0.49229974  0.40863011    -0.11000
H226        H  0.19942486  0.04067426  0.42120347     0.08700
H227        H  0.16280906  0.45239688  0.43712605     0.06200
H228        H  0.23424296  0.48999835  0.39984001     0.06100
C229        C  0.17139561  0.30703677  0.41683925     0.80200
N230        N  0.19731760  0.30768318  0.41777759    -0.78100
C231        C  0.22278361  0.33332754  0.41855632     0.82600
N232        N  0.22214002  0.35859444  0.41840222    -0.78100
C233        C  0.19647019  0.35843446  0.41750926     0.82700
N234        N  0.17117505  0.33258161  0.41679528    -0.79800
Zn235      Zn  0.03252361  0.49832290  0.47723456     1.49700
Zn236      Zn  0.03353592  0.03359672  0.51140239     1.49400
Zn237      Zn  0.49929254  0.46408862  0.50974120     1.49100
Zn238      Zn  0.06753282  0.49873401  0.51260305     1.49500
O239        O  0.03244268  0.49815671  0.50372206    -1.84200
O240        O  0.03066491  0.03297723  0.46595571    -0.74800
O241        O  0.49487159  0.01823967  0.52419800    -0.74600
O242        O  0.47490948  0.43893208  0.48910390    -0.74100
O243        O  0.03239307  0.05751402  0.49062582    -0.74800
O244        O  0.49820285  0.46370319  0.46453342    -0.74400
O245        O  0.47407610  0.47428620  0.52492157    -0.75000
O246        O  0.05829327  0.46356578  0.52758793    -0.74400
O247        O  0.06980504  0.05930985  0.52574642    -0.75100
O248        O  0.01003317  0.43877174  0.52795555    -0.74500
O249        O  0.09282967  0.03404006  0.52652247    -0.75000
O250        O  0.09302862  0.49993203  0.49226647    -0.74900
O251        O  0.06862080  0.49919848  0.46770963    -0.74700
C252        C  0.03155126  0.05502430  0.47349092     0.77100
C253        C  0.47682336  0.49834045  0.53030363     0.77600
C254        C  0.47704597  0.44162843  0.47197653     0.76600
C255        C  0.03449704  0.44163480  0.53257403     0.76900
C256        C  0.09122922  0.05645427  0.53079711     0.78100
C257        C  0.09070738  0.49994224  0.47514206     0.77100
C258        C  0.36060914  0.01976084  0.26264156     0.03100
C259        C  0.38774028  0.02107976  0.26144023    -0.13000
C260        C  0.39451987  0.50232003  0.24841489     0.00600
C261        C  0.37062110  0.48149702  0.23857811    -0.11600
C262        C  0.34378182  0.48066053  0.23923652     0.03100
C263        C  0.34083333  0.50086980  0.24992885    -0.11000
H264        H  0.40615717  0.03702270  0.26921499     0.08700
H265        H  0.37299755  0.46603551  0.23022110     0.06200
H266        H  0.31998330  0.50000014  0.25066302     0.06100
C267        C  0.19471650  0.18437676  0.23934570     0.03100
C268        C  0.21731581  0.18635228  0.25028375    -0.13000
C269        C  0.21425921  0.16163016  0.25936925     0.00600
C270        C  0.18862782  0.13468402  0.25695403    -0.11600
C271        C  0.16612890  0.13260110  0.24587437     0.03100
C272        C  0.16932647  0.15744787  0.23713616    -0.11000
H273        H  0.23686102  0.20726124  0.25214593     0.08700
H274        H  0.18591305  0.11551545  0.26398640     0.06200
H275        H  0.15181209  0.15583060  0.22868361     0.06100
C276        C  0.00589126  0.31540843  0.25834782     0.03100
C277        C  0.00438556  0.34099580  0.25580476    -0.13000
C278        C  0.02455627  0.36355202  0.24474393     0.00600
C279        C  0.04484569  0.35956109  0.23499364    -0.11600
C280        C  0.04641516  0.33410923  0.23707141     0.03100
C281        C  0.02711270  0.31220700  0.24884840    -0.11000
H282        H  0.48989076  0.34585531  0.26529214     0.08700
H283        H  0.05962290  0.37639701  0.22579838     0.06200
H284        H  0.02915309  0.29304621  0.25091170     0.06100
C285        C  0.05385884  0.02738122  0.24391590     0.80200
N286        N  0.02857298  0.02801114  0.24510101    -0.78100
C287        C  0.99984202  0.49952541  0.24462533     0.82600
N288        N  0.99944486  0.47375613  0.24371073    -0.78100
C289        C  0.02459643  0.47291410  0.24283174     0.82700
N290        N  0.05043431  0.49834869  0.24302566    -0.79800
Zn291      Zn  0.23083573  0.33422152  0.17653120     1.49700
Zn292      Zn  0.19472930  0.36731660  0.17690807     1.49400
Zn293      Zn  0.19604612  0.33482377  0.14126839     1.49100
Zn294      Zn  0.16144107  0.29757527  0.17624282     1.49500
O295        O  0.19562894  0.33334814  0.16772397    -1.84200
O296        O  0.25472695  0.36912467  0.19206022    -0.74800
O297        O  0.19483056  0.39293157  0.15680750    -0.74600
O298        O  0.23126885  0.33436502  0.13148002    -0.74100
O299        O  0.22945861  0.39223433  0.19242120    -0.74800
O300        O  0.25561428  0.33477197  0.15599280    -0.74400
O301        O  0.19666824  0.37103619  0.13183369    -0.75000
O302        O  0.13812027  0.27285606  0.15505304    -0.74400
O303        O  0.15916436  0.35507911  0.19195224    -0.75100
O304        O  0.16075933  0.29985623  0.13101154    -0.74500
O305        O  0.13518462  0.30673620  0.19128571    -0.75000
O306        O  0.17332330  0.27380705  0.19188177    -0.74900
O307        O  0.22157463  0.29928302  0.19162857    -0.74700
C308        C  0.25140623  0.39014784  0.19724421     0.77100
C309        C  0.19587597  0.39201987  0.13966448     0.77600
C310        C  0.25300682  0.33433935  0.13888537     0.76600
C311        C  0.14019782  0.27675400  0.13799779     0.76900
C312        C  0.13756389  0.33070687  0.19655052     0.78100
C313        C  0.19797038  0.27719760  0.19665214     0.77100
Zn314      Zn  0.36296218  0.20287477  0.32596129     1.49700
Zn315      Zn  0.36478000  0.16838881  0.36140512     1.49400
Zn316      Zn  0.32604527  0.13347482  0.32720599     1.49100
Zn317      Zn  0.39552621  0.16595062  0.32449262     1.49500
O318        O  0.36241632  0.16772259  0.33480017    -1.84200
O319        O  0.36359536  0.22740840  0.34687576    -0.74800
O320        O  0.32902922  0.13416946  0.37246071    -0.74600
O321        O  0.30163054  0.14460170  0.31200767    -0.74100
O322        O  0.36716748  0.20503782  0.37134678    -0.74800
O323        O  0.32775496  0.19288981  0.31022754    -0.74400
O324        O  0.30232919  0.11084844  0.34859534    -0.75000
O325        O  0.38183723  0.12900297  0.31024498    -0.74400
O326        O  0.40027575  0.16655226  0.36993670    -0.75100
O327        O  0.33352922  0.10620868  0.31222848    -0.74500
O328        O  0.42149379  0.16544147  0.34442863    -0.75000
O329        O  0.41967742  0.20048822  0.30788609    -0.74900
O330        O  0.39870711  0.22761483  0.31087773    -0.74700
C331        C  0.36588884  0.22614058  0.36397132     0.77100
C332        C  0.30606097  0.11315244  0.36564907     0.77600
C333        C  0.30536232  0.16877144  0.30605666     0.76600
C334        C  0.35681641  0.10755399  0.30656512     0.76900
C335        C  0.42082251  0.16552338  0.36164538     0.78100
C336        C  0.41856927  0.22349026  0.30435093     0.77100
C337        C  0.04900340  0.44393646  0.24849383    -0.26300
C338        C  0.02411388  0.44461442  0.24258409    -0.14400
C339        C  0.99926102  0.41825154  0.23715739     0.36200
C340        C  0.99998073  0.39207551  0.23794419    -0.25800
C341        C  0.02496591  0.39165829  0.24378983    -0.15000
C342        C  0.04965091  0.41795080  0.24926293     0.37300
N343        N  0.07520947  0.41881854  0.25650490    -0.89300
H344        H  0.06806460  0.46371429  0.25300746     0.18400
H345        H  0.48766228  0.37545646  0.23347512     0.18400
N346        N  0.48175471  0.42226227  0.22813889    -0.88300
H347        H  0.08496105  0.41271546  0.24650746     0.35800
H348        H  0.06909086  0.40410474  0.26726600     0.40900
H349        H  0.46612682  0.40137410  0.22394736     0.40500
H350        H  0.49008945  0.43477547  0.21641928     0.35400
C351        C  0.45643462  0.27495878  0.29947986    -0.26300
C352        C  0.44116345  0.24645279  0.29280774    -0.14400
C353        C  0.44721933  0.24063498  0.27522781     0.36200
C354        C  0.46836106  0.26364163  0.26465299    -0.25800
C355        C  0.48379080  0.29224675  0.27138381    -0.15000
C356        C  0.47792972  0.29768665  0.28911521     0.37300
N357        N  0.49434464  0.32611789  0.29688710    -0.89300
H358        H  0.45203430  0.27953472  0.31301483     0.18400
H359        H  0.47255472  0.25930745  0.25101580     0.18400
N360        N  0.43104638  0.21173918  0.26790059    -0.88300
H361        H  0.47977550  0.33304696  0.30068113     0.35800
H362        H  0.50458341  0.32445985  0.30857023     0.40900
H363        H  0.43686687  0.19847294  0.27517545     0.40500
H364        H  0.43712006  0.21146759  0.25449344     0.35400
C365        C  0.08568233  0.30779888  0.20619770    -0.26300
C366        C  0.11463587  0.33045185  0.20806714    -0.14400
C367        C  0.12114749  0.35327364  0.22037526     0.36200
C368        C  0.09847847  0.35356530  0.22990589    -0.25800
C369        C  0.06949879  0.33151558  0.22755164    -0.15000
C370        C  0.06295501  0.30827427  0.21568492     0.37300
N371        N  0.03324557  0.28584818  0.21287210    -0.89300
H372        H  0.08062403  0.29029030  0.19677114     0.18400
H373        H  0.10338600  0.37118998  0.23921779     0.18400
N374        N  0.15072931  0.37603185  0.22320914    -0.88300
H375        H  0.03215947  0.27040400  0.20368212     0.35800
H376        H  0.02223713  0.29555748  0.20690882     0.40900
H377        H  0.16202824  0.36654136  0.22902192     0.40500
H378        H  0.15164773  0.39129162  0.23251345     0.35400
C379        C  0.10660363  0.05517258  0.23574097    -0.26300
C380        C  0.08236500  0.05476881  0.24381748    -0.14400
C381        C  0.08608548  0.08028146  0.25226280     0.36200
C382        C  0.11363610  0.10527709  0.25265999    -0.25800
C383        C  0.13779517  0.10543433  0.24492994    -0.15000
C384        C  0.13417471  0.08023428  0.23615842     0.37300
N385        N  0.15789279  0.07973400  0.22725300    -0.89300
H386        H  0.10412013  0.03594229  0.22898811     0.18400
H387        H  0.11628774  0.12466436  0.25931020     0.18400
N388        N  0.06224155  0.08076118  0.26100091    -0.88300
H389        H  0.17410112  0.08393751  0.23678361     0.35800
H390        H  0.16641860  0.09636910  0.21757728     0.40900
H391        H  0.05960806  0.09724744  0.25507616     0.40500
H392        H  0.06773286  0.08607067  0.27459581     0.35400
C393        C  0.22008331  0.22537874  0.21775411    -0.26300
C394        C  0.19728877  0.21023596  0.23000607    -0.14400
C395        C  0.17590522  0.21843118  0.23217338     0.36200
C396        C  0.17681107  0.24054201  0.22121284    -0.25800
C397        C  0.19903817  0.25509497  0.20843250    -0.15000
C398        C  0.22127041  0.24769373  0.20699717     0.37300
N399        N  0.24454819  0.26137952  0.19421217    -0.89300
H400        H  0.23652513  0.21909203  0.21606451     0.18400
H401        H  0.16008020  0.24647530  0.22267150     0.18400
N402        N  0.15329211  0.20410019  0.24542231    -0.88300
H403        H  0.25721600  0.28343409  0.19743908     0.35800
H404        H  0.23567974  0.25929194  0.18129012     0.40900
H405        H  0.13926803  0.21265035  0.24529561     0.40500
H406        H  0.16321927  0.20872051  0.25815932     0.35400
C407        C  0.26635251  0.17709430  0.26517558    -0.26300
C408        C  0.23767219  0.16417502  0.27161891    -0.14400
C409        C  0.23170051  0.15390380  0.28960589     0.36200
C410        C  0.25435883  0.15583170  0.30052020    -0.25800
C411        C  0.28297127  0.16847496  0.29402006    -0.15000
C412        C  0.28906694  0.17918550  0.27604128     0.37300
N413        N  0.31758390  0.19145265  0.26812278    -0.89300
H414        H  0.27103483  0.18497367  0.25136575     0.18400
H415        H  0.24975970  0.14768311  0.31427583     0.18400
N416        N  0.20277481  0.14197411  0.29679350    -0.88300
H417        H  0.31609361  0.17822972  0.25722926     0.35800
H418        H  0.33270504  0.19110773  0.27700457     0.40900
H419        H  0.19763920  0.15865150  0.29691306     0.40500
H420        H  0.20207407  0.13545997  0.31021926     0.35400
C421        C  0.42310190  0.47735020  0.25235163    -0.26300
C422        C  0.42265060  0.50274192  0.24752510    -0.14400
C423        C  0.44523337  0.02598839  0.24298623     0.36200
C424        C  0.47084219  0.02440508  0.24301285    -0.25800
C425        C  0.47533151  0.50116013  0.24666850    -0.15000
C426        C  0.44898892  0.47614340  0.25195701     0.37300
N427        N  0.44843905  0.44965352  0.25706849    -0.89300
H428        H  0.40305685  0.45835284  0.25662904     0.18400
H429        H  0.49054532  0.04274045  0.23773957     0.18400
N430        N  0.44645329  0.05182831  0.23574636    -0.88300
H431        H  0.42718374  0.43315084  0.25989162     0.35800
H432        H  0.46020237  0.45368157  0.26910725     0.40900
H433        H  0.42606920  0.05029405  0.23555608     0.40500
H434        H  0.45285725  0.05368579  0.22222058     0.35400
C435        C  0.28085344  0.44198299  0.20632131    -0.26300
C436        C  0.27375729  0.41290109  0.20888471    -0.14400
C437        C  0.28862138  0.40606709  0.22215216     0.36200
C438        C  0.31105116  0.42861587  0.23208928    -0.25800
C439        C  0.31876150  0.45775500  0.22914919    -0.15000
C440        C  0.30345849  0.46457980  0.21621337     0.37300
N441        N  0.31148432  0.49438922  0.21280729    -0.89300
H442        H  0.26942065  0.44717670  0.19611147     0.18400
H443        H  0.32267321  0.42349033  0.24220662     0.18400
N444        N  0.28072936  0.37629336  0.22559401    -0.88300
H445        H  0.29805069  0.49562153  0.20287279     0.35800
H446        H  0.33065552  0.00631026  0.20955850     0.40900
H447        H  0.25946433  0.36561589  0.23061945     0.40500
H448        H  0.29392737  0.37509648  0.23571626     0.35400
C449        C  0.34346922  0.05526829  0.26795919    -0.26300
C450        C  0.35704862  0.04017045  0.27468229    -0.14400
C451        C  0.36816531  0.04568672  0.29251312     0.36200
C452        C  0.36758299  0.06777249  0.30261351    -0.25800
C453        C  0.35500723  0.08357373  0.29561375    -0.15000
C454        C  0.34214364  0.07679640  0.27819536     0.37300
N455        N  0.32838697  0.09169633  0.27019833    -0.89300
H456        H  0.33466295  0.05103837  0.25435619     0.18400
H457        H  0.37688488  0.07264401  0.31609261     0.18400
N458        N  0.37981205  0.02873082  0.30032841    -0.88300
H459        H  0.34030254  0.10259632  0.25869780     0.35800
H460        H  0.32894075  0.10760694  0.27870671     0.40900
H461        H  0.36280073  0.00718338  0.30119407     0.40500
H462        H  0.38699840  0.03550945  0.31354097     0.35400
C463        C  0.17517654  0.41650952  0.41003710    -0.31700
C464        C  0.19866637  0.44060283  0.41822475    -0.14400
C465        C  0.22092896  0.43748586  0.42654502     0.36200
C466        C  0.21973866  0.41058723  0.42608525    -0.25800
C467        C  0.19641575  0.38634343  0.41771849    -0.15000
C468        C  0.17383413  0.38940318  0.40970290     0.37300
N469        N  0.14982049  0.36531517  0.40091067    -0.89300
H470        H  0.15786282  0.41880215  0.40381952     0.18400
H471        H  0.23700165  0.40856822  0.43260675     0.18400
N472        N  0.24446981  0.46103540  0.43603785    -0.88300
H473        H  0.14922654  0.37113902  0.38746783     0.35800
H474        H  0.13062937  0.36167750  0.40719330     0.40900
H475        H  0.23572129  0.46821179  0.44610795     0.40500
H476        H  0.25606218  0.47813413  0.42698448     0.35400
C477        C  0.25722476  0.06899308  0.36932013    -0.26300
C478        C  0.28321835  0.09035745  0.37745396    -0.14400
C479        C  0.28690109  0.08870251  0.39634569     0.36200
C480        C  0.26505604  0.06538793  0.40631470    -0.25800
C481        C  0.23991573  0.04359109  0.39787339    -0.15000
C482        C  0.23560475  0.04577774  0.37921515     0.37300
N483        N  0.20984004  0.02479448  0.36977394    -0.89300
H484        H  0.25361874  0.06998368  0.35497307     0.18400
H485        H  0.26805329  0.06364277  0.42067351     0.18400
N486        N  0.31285397  0.11015358  0.40535707    -0.88300
H487        H  0.19941058  0.03572509  0.36477304     0.35800
H488        H  0.19496162  0.00859699  0.37837200     0.40900
H489        H  0.33005243  0.10736558  0.40096330     0.40500
H490        H  0.31127347  0.10648022  0.41930549     0.35400
C491        C  0.13817852  0.50604117  0.43482265    -0.26300
C492        C  0.15864024  0.50022412  0.44295682    -0.14400
C493        C  0.15414874  0.99102215  0.45961180     0.36200
C494        C  0.13528021  0.49554414  0.47196557    -0.25800
C495        C  0.11416356  0.50061719  0.46379302    -0.15000
C496        C  0.11592935  0.50613174  0.44498528     0.37300
N497        N  0.09528576  0.51189419  0.43606494    -0.89300
H498        H  0.13908532  0.50991116  0.42037771     0.18400
H499        H  0.13082975  0.98661112  0.48400220     0.18400
N500        N  0.17379235  0.98403260  0.46875046    -0.88300
H501        H  0.10528993  0.02497035  0.42182444     0.35800
H502        H  0.10667211  0.53231463  0.42987609     0.40900
H503        H  0.19902589  0.50735136  0.46814430     0.40500
H504        H  0.17665410  0.47082484  0.46626149     0.35400
C505        C  0.11773463  0.27826946  0.42179140    -0.26300
C506        C  0.14353008  0.27881129  0.41658679    -0.14400
C507        C  0.14225376  0.25233882  0.41173671     0.36200
C508        C  0.11561135  0.22612915  0.41281821    -0.25800
C509        C  0.09006215  0.22571166  0.41816646    -0.15000
C510        C  0.09108680  0.25203136  0.42271118     0.37300
N511        N  0.06517975  0.25193113  0.42856996    -0.89300
H512        H  0.11838917  0.29832421  0.42556703     0.18400
H513        H  0.11459720  0.20587648  0.40908940     0.18400
N514        N  0.16776002  0.25205671  0.40543426    -0.88300
H515        H  0.06960783  0.27311269  0.43133668     0.35800
H516        H  0.05865126  0.24043171  0.44075383     0.40900
H517        H  0.17368925  0.26314980  0.39309177     0.40500
H518        H  0.16312652  0.23077767  0.40279378     0.35400
C519        C  0.48953951  0.16285856  0.37478703    -0.26300
C520        C  0.48714041  0.16094015  0.39364947    -0.14400
C521        C  0.46317877  0.16081029  0.40197725     0.36200
C522        C  0.44191384  0.16208105  0.39132313    -0.25800
C523        C  0.44416026  0.16414553  0.37232347    -0.15000
C524        C  0.46859263  0.16474396  0.36401069     0.37300
N525        N  0.47251886  0.16777190  0.34474371    -0.89300
H526        H  0.01111879  0.16828933  0.37274682     0.18400
H527        H  0.42368525  0.16186426  0.39806814     0.18400
N528        N  0.46049578  0.16053216  0.42124925    -0.88300
H529        H  0.49082190  0.16651766  0.34086428     0.35800
H530        H  0.47691992  0.18875087  0.34132477     0.40900
H531        H  0.47908222  0.17857247  0.42648969     0.40500
H532        H  0.45959393  0.14166392  0.42627932     0.35400
C533        C  0.02095270  0.07236440  0.44441015    -0.26300
C534        C  0.03200416  0.07848965  0.46214850    -0.14400
C535        C  0.04393360  0.10721878  0.46869777     0.36200
C536        C  0.04393871  0.12882691  0.45773349    -0.25800
C537        C  0.03282460  0.12279097  0.44004150    -0.15000
C538        C  0.02144980  0.09422523  0.43323694     0.37300
N539        N  0.01107910  0.08763382  0.41492217    -0.89300
H540        H  0.01201691  0.05046476  0.43919009     0.18400
H541        H  0.05288559  0.15063113  0.46313131     0.18400
N542        N  0.05688653  0.11488335  0.48631514    -0.88300
H543        H  0.00336895  0.06567151  0.41206338     0.35800
H544        H  0.02885780  0.09963057  0.40639387     0.40900
H545        H  0.04612612  0.12347612  0.49369428     0.40500
H546        H  0.07863596  0.13120125  0.48483960     0.35400
C547        C  0.28046399  0.31105332  0.42447894    -0.26300
C548        C  0.30548750  0.33621359  0.41860059    -0.14400
C549        C  0.30346196  0.36057139  0.41309090     0.36200
C550        C  0.27640211  0.35931086  0.41339162    -0.25800
C551        C  0.25110525  0.33398055  0.41908562    -0.15000
C552        C  0.25341416  0.30978297  0.42493890     0.37300
N553        N  0.22858923  0.28408632  0.43174430    -0.89300
H554        H  0.28200092  0.29235092  0.42893716     0.18400
H555        H  0.27518896  0.37811892  0.40879657     0.18400
N556        N  0.32869343  0.38630578  0.40669500    -0.88300
H557        H  0.23318929  0.28059963  0.44497645     0.35800
H558        H  0.22557669  0.26643998  0.42387594     0.40900
H559        H  0.33172068  0.40375949  0.41478976     0.40500
H560        H  0.32454561  0.39037431  0.39350209     0.35400
C561        C  0.37507512  0.27618532  0.40365277    -0.26300
C562        C  0.36460442  0.29347976  0.39600237    -0.14400
C563        C  0.35581717  0.28933586  0.37776345     0.36200
C564        C  0.35674584  0.26753603  0.36766797    -0.25800
C565        C  0.36649631  0.24957992  0.37532211    -0.15000
C566        C  0.37622579  0.25431408  0.39352805     0.37300
N567        N  0.38727722  0.23709163  0.40170128    -0.89300
H568        H  0.38198393  0.27949422  0.41766755     0.18400
H569        H  0.34942032  0.26452052  0.35374139     0.18400
N570        N  0.34626280  0.30752516  0.36933798    -0.88300
H571        H  0.39284870  0.24296596  0.41522327     0.35800
H572        H  0.40659559  0.24204053  0.39504390     0.40900
H573        H  0.32508996  0.29417403  0.36450751     0.40500
H574        H  0.35974210  0.31784250  0.35825699     0.35400
C575        C  0.44821604  0.42739878  0.44352969    -0.26300
C576        C  0.45411642  0.41909298  0.46038428    -0.14400
C577        C  0.43752496  0.38972027  0.46600981     0.36200
C578        C  0.41487248  0.36960946  0.45489911    -0.25800
C579        C  0.40861321  0.37828006  0.43837702    -0.15000
C580        C  0.42553532  0.40738927  0.43260133     0.37300
N581        N  0.42005860  0.41714464  0.41572397    -0.89300
H582        H  0.46078855  0.44979916  0.43900971     0.18400
H583        H  0.40181841  0.34713720  0.45919311     0.18400
N584        N  0.44381423  0.38036762  0.48285656    -0.88300
H585        H  0.39886697  0.41378817  0.41589678     0.35800
H586        H  0.42146651  0.40450179  0.40538956     0.40900
H587        H  0.46459063  0.38276861  0.48179835     0.40500
H588        H  0.42938228  0.35822032  0.48502597     0.35400
C589        C  0.38678412  0.07544108  0.59605169    -0.26300
C590        C  0.36577127  0.05262552  0.58557343    -0.14400
C591        C  0.34516126  0.05647629  0.57574656     0.36200
C592        C  0.34647667  0.08359174  0.57618351    -0.25800
C593        C  0.36818286  0.10694115  0.58612710    -0.15000
C594        C  0.38812091  0.10246739  0.59653944     0.37300
N595        N  0.40914501  0.12441652  0.60825032    -0.89300
H596        H  0.40218336  0.07215042  0.60395293     0.18400
H597        H  0.33092869  0.08672642  0.56834583     0.18400
N598        N  0.32319383  0.03289665  0.56526709    -0.88300
H599        H  0.39832083  0.13134784  0.61696332     0.35800
H600        H  0.42402000  0.14203157  0.60049146     0.40900
H601        H  0.33374260  0.02824341  0.55497053     0.40500
H602        H  0.30954992  0.03921561  0.55893397     0.35400
C603        C  0.29697609  0.43164790  0.63617996    -0.26300
C604        C  0.28251634  0.40343609  0.62909857    -0.14400
C605        C  0.29069481  0.39791003  0.61210143     0.36200
C606        C  0.31227023  0.42132419  0.60205152    -0.25800
C607        C  0.32611396  0.44989118  0.60889721    -0.15000
C608        C  0.31902166  0.45473609  0.62643796     0.37300
N609        N  0.33439835  0.48301210  0.63453137    -0.89300
H610        H  0.29116667  0.43577769  0.64944236     0.18400
H611        H  0.31764692  0.41740660  0.58861996     0.18400
N612        N  0.27608990  0.36896041  0.60474861    -0.88300
H613        H  0.31923484  0.48940927  0.63786858     0.35800
H614        H  0.34392758  0.48128235  0.64652204     0.40900
H615        H  0.28149443  0.35611247  0.61281179     0.40500
H616        H  0.28391128  0.36888134  0.59179440     0.35400
C617        C  0.43861318  0.51717149  0.56697220    -0.26300
C618        C  0.40967867  0.49478505  0.56481137    -0.14400
C619        C  0.40296585  0.47372929  0.55118674     0.36200
C620        C  0.42526264  0.47525239  0.54031610    -0.25800
C621        C  0.45421765  0.49787485  0.54230152    -0.15000
C622        C  0.46079792  0.51914465  0.55584773     0.37300
N623        N  0.48974999  0.54271125  0.55890817    -0.89300
H624        H  0.44394327  0.53361439  0.57725942     0.18400
H625        H  0.41973521  0.45899636  0.52988261     0.18400
N626        N  0.37363596  0.45147304  0.54745954    -0.88300
H627        H  0.49668665  0.55607251  0.54746075     0.35800
H628        H  0.50352489  0.53417938  0.56116647     0.40900
H629        H  0.36112061  0.46134227  0.54496275     0.40500
H630        H  0.36527670  0.43795455  0.55876778     0.35400
C631        C  0.47605567  0.24295221  0.57275351    -0.26300
C632        C  0.47687048  0.26831950  0.57895909    -0.14400
C633        C  0.45131555  0.26675637  0.58576682     0.36200
C634        C  0.42547784  0.23979148  0.58632495    -0.25800
C635        C  0.42452699  0.21414556  0.58038067    -0.15000
C636        C  0.45027423  0.21600506  0.57326955     0.37300
N637        N  0.45091284  0.19134251  0.56593614    -0.89300
H638        H  0.49562561  0.24415446  0.56735145     0.18400
H639        H  0.40604988  0.23878771  0.59179547     0.18400
N640        N  0.45184469  0.29249916  0.59240535    -0.88300
H641        H  0.43470705  0.18176217  0.55603261     0.35800
H642        H  0.44696158  0.17637962  0.57625354     0.40900
H643        H  0.46551317  0.29968553  0.60371352     0.40500
H644        H  0.43118277  0.28768582  0.59683688     0.35400
C645        C  0.10953585  0.30789158  0.61162245    -0.26300
C646        C  0.12225411  0.32909996  0.62517797    -0.14400
C647        C  0.11325931  0.34996961  0.62716396     0.36200
C648        C  0.09104582  0.34849917  0.61593608    -0.25800
C649        C  0.07772169  0.32668530  0.60275701    -0.15000
C650        C  0.08772705  0.30678159  0.60028476     0.37300
N651        N  0.07616949  0.28575557  0.58602661    -0.89300
H652        H  0.11675246  0.29220411  0.60970334     0.18400
H653        H  0.08347076  0.36389698  0.61784533     0.18400
N654        N  0.12603526  0.37200176  0.64089104    -0.88300
H655        H  0.06752345  0.26505005  0.59176923     0.35800
H656        H  0.09340580  0.28911285  0.57759753     0.40900
H657        H  0.12040105  0.36151259  0.65346548     0.40500
H658        H  0.11716127  0.38571646  0.64045365     0.35400
C659        C  0.01146176  0.40217613  0.55543344    -0.26300
C660        C  0.03506166  0.41888052  0.54393257    -0.14400
C661        C  0.05831057  0.41304588  0.54320921     0.36200
C662        C  0.05709270  0.39018332  0.55350367    -0.25800
C663        C  0.03305854  0.37295169  0.56456884    -0.15000
C664        C  0.01039850  0.37955484  0.56584571     0.37300
N665        N  0.98639584  0.36354231  0.57786123    -0.89300
H666        H  0.99370491  0.40672670  0.55642134     0.18400
H667        H  0.07457871  0.38526480  0.55234076     0.18400
N668        N  0.08267541  0.42948082  0.53153643    -0.88300
H669        H  0.96719451  0.35425118  0.57022416     0.35800
H670        H  0.98563872  0.37820840  0.58694441     0.40900
H671        H  0.08401216  0.41506270  0.52249483     0.40500
H672        H  0.10156325  0.43887762  0.53944949     0.35400
C673        C  0.26481968  0.14144347  0.58522612    -0.26300
C674        C  0.26605825  0.16761921  0.58028890    -0.14400
C675        C  0.29332999  0.19204212  0.57582517     0.36200
C676        C  0.31854085  0.18973173  0.57706373    -0.25800
C677        C  0.31735286  0.16345316  0.58201095    -0.15000
C678        C  0.28993753  0.13903726  0.58606086     0.37300
N679        N  0.28727718  0.11175422  0.59128616    -0.89300
H680        H  0.24406515  0.12263923  0.58871486     0.18400
H681        H  0.33921556  0.20868938  0.57369729     0.18400
N682        N  0.29636886  0.21920283  0.56962305    -0.88300
H683        H  0.27329108  0.09588726  0.58213058     0.35800
H684        H  0.27766088  0.10621928  0.60407368     0.40900
H685        H  0.27624409  0.21790559  0.56786677     0.40500
H686        H  0.30572067  0.22330310  0.55673991     0.35400
C687        C  0.21697278  0.21199863  0.62270947    -0.26300
C688        C  0.20438024  0.20657246  0.60538324    -0.14400
C689        C  0.18875928  0.22059393  0.59999544     0.36200
C690        C  0.18572610  0.23925015  0.61214545    -0.25800
C691        C  0.19903503  0.24517341  0.62919565    -0.15000
C692        C  0.21466134  0.23132674  0.63460577     0.37300
N693        N  0.22798003  0.23686516  0.65219984    -0.89300
H694        H  0.22857511  0.20100156  0.62702926     0.18400
H695        H  0.17410432  0.25031726  0.60798364     0.18400
N696        N  0.17692278  0.21667385  0.58203576    -0.88300
H697        H  0.23884159  0.22512027  0.65404427     0.35800
H698        H  0.21128680  0.22905923  0.66178967     0.40900
H699        H  0.19438035  0.22534442  0.57298944     0.40500
H700        H  0.16613968  0.22852337  0.58026941     0.35400
C701        C  0.13151586  0.07175559  0.55302493    -0.26300
C702        C  0.11487542  0.07945008  0.54187209    -0.14400
C703        C  0.12145602  0.10882923  0.54133083     0.36200
C704        C  0.14464997  0.12971893  0.55179353    -0.25800
C705        C  0.16160030  0.12201025  0.56257498    -0.15000
C706        C  0.15459777  0.09262257  0.56348847     0.37300
N707        N  0.17079747  0.08405561  0.57516466    -0.89300
H708        H  0.12633573  0.04924197  0.55371930     0.18400
H709        H  0.15013199  0.15232895  0.55111808     0.18400
N710        N  0.10519462  0.11756735  0.52984387    -0.88300
H711        H  0.16294166  0.06166106  0.57422748     0.35800
H712        H  0.16726801  0.08810461  0.58847017     0.40900
H713        H  0.10939135  0.11457146  0.51645408     0.40500
H714        H  0.11254195  0.13979276  0.53130065     0.35400
C715        C  0.05626713  0.09933741  0.76018211    -0.26300
C716        C  0.03228763  0.10058382  0.75323801    -0.14400
C717        C  0.00856685  0.07518759  0.74595644     0.36200
C718        C  0.00897932  0.04898988  0.74620517    -0.25800
C719        C  0.03287271  0.04754019  0.75333059    -0.15000
C720        C  0.05679156  0.07314521  0.76032790     0.37300
N721        N  0.08142030  0.07264332  0.76797665    -0.89300
H722        H  0.07461250  0.11880004  0.76569749     0.18400
H723        H  0.49023606  0.03006157  0.73693483     0.18400
N724        N  0.48204096  0.07472719  0.73355417    -0.88300
H725        H  0.08376832  0.07965835  0.78138131     0.35800
H726        H  0.09998906  0.08750019  0.76085234     0.40900
H727        H  0.49009130  0.09031822  0.72323950     0.40500
H728        H  0.47093879  0.08047084  0.74282189     0.35400
C729        C  0.07990714  0.19632322  0.71328371    -0.26300
C730        C  0.07569677  0.20281867  0.73105039    -0.14400
C731        C  0.09298076  0.23156567  0.73739654     0.36200
C732        C  0.11358730  0.25315329  0.72590024    -0.25800
C733        C  0.11776110  0.24662147  0.70811862    -0.15000
C734        C  0.10086464  0.21770741  0.70192026     0.37300
N735        N  0.10555267  0.20961306  0.68432309    -0.89300
H736        H  0.06700297  0.17433463  0.70817893     0.18400
H737        H  0.12658940  0.27511367  0.73102627     0.18400
N738        N  0.09049911  0.23875638  0.75570031    -0.88300
H739        H  0.08591661  0.20063023  0.67718971     0.35800
H740        H  0.11128351  0.19346674  0.68588831     0.40900
H741        H  0.08527952  0.25536279  0.75548111     0.40500
H742        H  0.11083393  0.24687369  0.76192194     0.35400
C743        C  0.45174324  0.17481628  0.78059530    -0.26300
C744        C  0.44662769  0.16216569  0.79779786    -0.14400
C745        C  0.46283281  0.14933577  0.80388526     0.36200
C746        C  0.48361876  0.14888206  0.79236165    -0.25800
C747        C  0.48813435  0.16060383  0.77478052    -0.15000
C748        C  0.47187696  0.17365837  0.76884036     0.37300
N749        N  0.47500216  0.18469236  0.75071378    -0.89300
H750        H  0.43901213  0.18451795  0.77603918     0.18400
H751        H  0.00040698  0.14301163  0.79888178     0.18400
N752        N  0.45819627  0.13699951  0.82173791    -0.88300
H753        H  0.46154369  0.19365895  0.74858273     0.35800
H754        H  0.46780587  0.16704979  0.74190030     0.40900
H755        H  0.46427060  0.15396940  0.83100248     0.40500
H756        H  0.47182695  0.12834657  0.82411349     0.35400
C757        C  0.11573840  0.47216847  0.75892796    -0.26300
C758        C  0.14040449  0.49543547  0.75101235    -0.14400
C759        C  0.13689108  0.01685814  0.74763955     0.36200
C760        C  0.11020804  0.01624151  0.74763853    -0.25800
C761        C  0.08650927  0.49454642  0.75107719    -0.15000
C762        C  0.08892568  0.47158629  0.75913702     0.37300
N763        N  0.06445742  0.44794773  0.76791280    -0.89300
H764        H  0.11735906  0.45443951  0.76509510     0.18400
H765        H  0.10926981  0.03467389  0.74201891     0.18400
N766        N  0.16164882  0.04167257  0.73994319    -0.88300
H767        H  0.07010227  0.44728499  0.78139566     0.35800
H768        H  0.06039650  0.42857270  0.76171299     0.40900
H769        H  0.17011278  0.03452786  0.72969380     0.40500
H770        H  0.17750587  0.05183631  0.74994190     0.35400
C771        C  0.25015342  0.06391380  0.77079238    -0.26300
C772        C  0.24197181  0.03470473  0.77382089    -0.14400
C773        C  0.25755823  0.02771203  0.78645684     0.36200
C774        C  0.28062625  0.05023892  0.79620149    -0.25800
C775        C  0.28801447  0.07945031  0.79368385    -0.15000
C776        C  0.27312632  0.08637211  0.78043887     0.37300
N777        N  0.28147294  0.11620145  0.77675566    -0.89300
H778        H  0.23846671  0.06919161  0.76080498     0.18400
H779        H  0.29209889  0.04488146  0.80628662     0.18400
N780        N  0.24935050  0.99782014  0.78972299    -0.88300
H781        H  0.26816007  0.11747952  0.76674086     0.35800
H782        H  0.30258001  0.12638304  0.77150090     0.40900
H783        H  0.22836403  0.98741574  0.79521216     0.40500
H784        H  0.26298617  0.99641099  0.79941537     0.35400
C785        C  0.20907035  0.43514403  0.73508310    -0.26300
C786        C  0.19952843  0.45315147  0.72738704    -0.14400
C787        C  0.19197146  0.45008058  0.70893128     0.36200
C788        C  0.19289702  0.42833145  0.69867578    -0.25800
C789        C  0.20125806  0.40940059  0.70653397    -0.15000
C790        C  0.21005912  0.41340265  0.72485770     0.37300
N791        N  0.22038197  0.39573575  0.73311894    -0.89300
H792        H  0.21532614  0.43763289  0.74921405     0.18400
H793        H  0.18655218  0.42598925  0.68456939     0.18400
N794        N  0.18370511  0.46928030  0.70051258    -0.88300
H795        H  0.20718391  0.38518020  0.74426808     0.35800
H796        H  0.24155730  0.40945593  0.73781777     0.40900
H797        H  0.16283739  0.45666116  0.69507194     0.40500
H798        H  0.19808506  0.47994611  0.68985277     0.35400
C799        C  0.45057470  0.39079812  0.74718614    -0.26300
C800        C  0.42624438  0.39157438  0.75393399    -0.14400
C801        C  0.42965812  0.41828469  0.76014888     0.36200
C802        C  0.45699863  0.44351533  0.75922086    -0.25800
C803        C  0.48144131  0.44288058  0.75238029    -0.15000
C804        C  0.47802043  0.41608970  0.74631882     0.37300
N805        N  0.00030628  0.41428456  0.73599259    -0.89300
H806        H  0.44817852  0.37041098  0.74237181     0.18400
H807        H  0.45916883  0.46371521  0.76420404     0.18400
N808        N  0.40609302  0.42026789  0.76811791    -0.88300
H809        H  0.99489696  0.40662184  0.72273410     0.35800
H810        H  0.00369528  0.39935901  0.74336251     0.40900
H811        H  0.39774986  0.40546281  0.77884656     0.40500
H812        H  0.38971326  0.41464681  0.75848427     0.35400
C813        C  0.39094365  0.28293779  0.77339672    -0.26300
C814        C  0.36691199  0.28741065  0.77350522    -0.14400
C815        C  0.34160593  0.26759363  0.78313104     0.36200
C816        C  0.34102643  0.24402733  0.79233018    -0.25800
C817        C  0.36547203  0.24028085  0.79277883    -0.15000
C818        C  0.39060603  0.25979338  0.78294167     0.37300
N819        N  0.41570098  0.25606350  0.78258325    -0.89300
H820        H  0.41015760  0.29754227  0.76571610     0.18400
H821        H  0.32173144  0.22921958  0.79988423     0.18400
N822        N  0.31695081  0.27196706  0.78413570    -0.88300
H823        H  0.43250168  0.27259018  0.77504424     0.35800
H824        H  0.40972136  0.23652898  0.77587100     0.40900
H825        H  0.32349952  0.29134404  0.79116834     0.40500
H826        H  0.30010959  0.25536326  0.79161904     0.35400
C827        C  0.29438725  0.31600545  0.70492189    -0.26300
C828        C  0.27774393  0.32823445  0.71102706    -0.14400
C829        C  0.28411228  0.34205473  0.72810378     0.36200
C830        C  0.30710703  0.34350501  0.73849152    -0.25800
C831        C  0.32379284  0.33149302  0.73221425    -0.15000
C832        C  0.31718952  0.31733484  0.71526304     0.37300
N833        N  0.33351766  0.30479889  0.70783180    -0.89300
H834        H  0.28972355  0.30530626  0.69188547     0.18400
H835        H  0.31228825  0.35432349  0.75149945     0.18400
N836        N  0.26775181  0.35510561  0.73468375    -0.88300
H837        H  0.31949917  0.28231154  0.70694363     0.35800
H838        H  0.35080433  0.30799832  0.71613925     0.40900
H839        H  0.27205047  0.37258006  0.72616794     0.40500
H840        H  0.27491662  0.36387201  0.74757583     0.35400
C841        C  0.46360978  0.26337570  0.90516587    -0.26300
C842        C  0.48405983  0.28920810  0.89671260    -0.14400
C843        C  0.48263408  0.29236079  0.87790972     0.36200
C844        C  0.46083915  0.26930898  0.86782276    -0.25800
C845        C  0.44038683  0.24303499  0.87615696    -0.15000
C846        C  0.44187838  0.24027474  0.89510793     0.37300
N847        N  0.42200295  0.21384080  0.90419986    -0.89300
H848        H  0.46509140  0.26077990  0.91960373     0.18400
H849        H  0.45999648  0.27191001  0.85334321     0.18400
N850        N  0.01798295  0.30668877  0.87057543    -0.88300
H851        H  0.41107537  0.21882458  0.91405384     0.35800
H852        H  0.43410231  0.20581954  0.91074558     0.40900
H853        H  0.01927786  0.32700031  0.87136782     0.40500
H854        H  0.01759439  0.30198373  0.85682852     0.35400
C855        C  0.01648735  0.36738645  0.95668875    -0.26300
C856        C  0.02695911  0.37449913  0.93898999    -0.14400
C857        C  0.03551831  0.40244503  0.93211933     0.36200
C858        C  0.03421296  0.42306101  0.94322355    -0.25800
C859        C  0.02473539  0.41648515  0.96126844    -0.15000
C860        C  0.01511127  0.38801299  0.96792416     0.37300
N861        N  0.50631143  0.37945528  0.98659242    -0.89300
H862        H  0.50952563  0.34465487  0.96156302     0.18400
H863        H  0.04146444  0.44463297  0.93781185     0.18400
N864        N  0.04589361  0.41046531  0.91397480    -0.88300
H865        H  0.49950575  0.35752203  0.98901252     0.35800
H866        H  0.48771002  0.38149975  0.98738042     0.40900
H867        H  0.02970225  0.39596802  0.90515943     0.40500
H868        H  0.06430238  0.40827354  0.91236905     0.35400
C869        C  0.14262020  0.35912497  0.91316803    -0.26300
C870        C  0.14300958  0.33369564  0.91830333    -0.14400
C871        C  0.11687711  0.30938065  0.92433999     0.36200
C872        C  0.09097976  0.31039648  0.92431781    -0.25800
C873        C  0.09047211  0.33541951  0.91874577    -0.15000
C874        C  0.11660583  0.36015966  0.91336454     0.37300
N875        N  0.11665392  0.38602708  0.90760888    -0.89300
H876        H  0.16242784  0.37812020  0.90862573     0.18400
H877        H  0.07107163  0.29148074  0.92885022     0.18400
N878        N  0.11650641  0.28375280  0.93093809    -0.88300
H879        H  0.12457094  0.39072289  0.89438043     0.35800
H880        H  0.13111912  0.40317425  0.91588311     0.40900
H881        H  0.10162767  0.26607564  0.92318140     0.40500
H882        H  0.10901700  0.28025039  0.94427910     0.35400
C883        C  0.21826043  0.27552777  0.92030842    -0.26300
C884        C  0.19409311  0.27733186  0.91410143    -0.14400
C885        C  0.16949984  0.25178089  0.90756869     0.36200
C886        C  0.16967500  0.22534150  0.90731182    -0.25800
C887        C  0.19399814  0.22382431  0.91334986    -0.15000
C888        C  0.21837264  0.24919391  0.92013184     0.37300
N889        N  0.24308724  0.24863602  0.92760063    -0.89300
H890        H  0.23711977  0.29463035  0.92571145     0.18400
H891        H  0.15077593  0.20591785  0.90224072     0.18400
N892        N  0.14447403  0.25253927  0.90088484    -0.88300
H893        H  0.25287659  0.24274574  0.91750764     0.35800
H894        H  0.23587956  0.23296166  0.93786317     0.40900
H895        H  0.12640776  0.23778710  0.90843260     0.40500
H896        H  0.14104144  0.24545669  0.88746458     0.35400
C897        C  0.23918384  0.17008540  0.87383633    -0.26300
C898        C  0.23616359  0.16313806  0.89231531    -0.14400
C899        C  0.25530837  0.15515208  0.90048900     0.36200
C900        C  0.27681144  0.15404305  0.88996903    -0.25800
C901        C  0.27999069  0.16113771  0.87146455    -0.15000
C902        C  0.26081509  0.16923591  0.86338870     0.37300
N903        N  0.26355611  0.17732675  0.84469474    -0.89300
H904        H  0.22472141  0.17642059  0.86745802     0.18400
H905        H  0.29137170  0.14786019  0.89635422     0.18400
N906        N  0.25336793  0.14894146  0.91953053    -0.88300
H907        H  0.26717501  0.19858775  0.84386616     0.35800
H908        H  0.24378479  0.16353546  0.83826400     0.40900
H909        H  0.25845542  0.16809663  0.92641166     0.40500
H910        H  0.26894116  0.14331072  0.92341020     0.35400
C911        C  0.13030783  0.10604998  0.96654335    -0.26300
C912        C  0.11224244  0.07793519  0.95966962    -0.14400
C913        C  0.11638866  0.07178786  0.94166305     0.36200
C914        C  0.13713615  0.09432156  0.93068668    -0.25800
C915        C  0.15413643  0.12272482  0.93737452    -0.15000
C916        C  0.15119681  0.12830825  0.95563660     0.37300
N917        N  0.16966977  0.15652590  0.96324088    -0.89300
H918        H  0.12792584  0.11102614  0.98041512     0.18400
H919        H  0.13970477  0.08982007  0.91674639     0.18400
N920        N  0.09971862  0.04274865  0.93460109    -0.88300
H921        H  0.18098094  0.15416569  0.97412198     0.35800
H922        H  0.15645181  0.16436247  0.96826020     0.40900
H923        H  0.10553032  0.02949849  0.94193623     0.40500
H924        H  0.10529479  0.04201438  0.92114614     0.35400
C925        C  0.27565033  0.38506165  0.91142304    -0.26300
C926        C  0.25061303  0.38460026  0.91820582    -0.14400
C927        C  0.25343504  0.41036741  0.92577871     0.36200
C928        C  0.28074215  0.43574910  0.92626789    -0.25800
C929        C  0.30554387  0.43611749  0.91944814    -0.15000
C930        C  0.30291620  0.41048966  0.91186521     0.37300
N931        N  0.32726220  0.40995385  0.90389630    -0.89300
H932        H  0.27400612  0.36568734  0.90539161     0.18400
H933        H  0.28261145  0.45537968  0.93206888     0.18400
N934        N  0.22882055  0.41090811  0.93328299    -0.88300
H935        H  0.34308905  0.41483613  0.91383017     0.35800
H936        H  0.33602800  0.42599738  0.89387104     0.40900
H937        H  0.22630732  0.42683182  0.92644918     0.40500
H938        H  0.23333554  0.41707491  0.94684335     0.35400
C939        C  0.34379016  0.07157847  0.89250369    -0.26300
C940        C  0.36319748  0.08211120  0.87786663    -0.14400
C941        C  0.38160862  0.07030629  0.87464080     0.36200
C942        C  0.37953555  0.04783701  0.88564378    -0.25800
C943        C  0.35921324  0.03646243  0.89971493    -0.15000
C944        C  0.34155247  0.04877620  0.90344323     0.37300
N945        N  0.32150095  0.03807554  0.91833260    -0.89300
H946        H  0.32987760  0.08072753  0.89515951     0.18400
H947        H  0.39348547  0.03873406  0.88294747     0.18400
N948        N  0.40306994  0.08107656  0.86059953    -0.88300
H949        H  0.31010559  0.04942500  0.91924920     0.35800
H950        H  0.33374422  0.04247811  0.93020953     0.40900
H951        H  0.41637926  0.10356778  0.86220626     0.40500
H952        H  0.39263234  0.07688772  0.84806946     0.35400
C953        C  0.39750768  0.98623636  0.96012877    -0.26300
C954        C  0.40744214  0.49713487  0.94203968    -0.14400
C955        C  0.43434687  0.50367003  0.93439565     0.36200
C956        C  0.45653114  0.50527462  0.94564341    -0.25800
C957        C  0.45236079  0.50049971  0.96439671    -0.15000
C958        C  0.41991114  0.98819670  0.97125345     0.37300
N959        N  0.41384107  0.97983229  0.98986507    -0.89300
H960        H  0.37614296  0.97875836  0.96589922     0.18400
H961        H  0.47705737  0.50995549  0.93966004     0.18400
N962        N  0.43881402  0.50810101  0.91522520    -0.88300
H963        H  0.39690645  0.95821724  0.99040874     0.35800
H964        H  0.40655500  0.99284316  0.99592208     0.40900
H965        H  0.42447074  0.48843626  0.90886890     0.40500
H966        H  0.45983589  0.51284439  0.91177585     0.35400
C967        C  0.28253024  0.06112989  0.07866439    -0.26300
C968        C  0.25775347  0.06054192  0.08577982    -0.14400
C969        C  0.25994062  0.08660307  0.09228352     0.36200
C970        C  0.28655040  0.11259429  0.09124337    -0.25800
C971        C  0.31141777  0.11343688  0.08387422    -0.15000
C972        C  0.30921786  0.08725068  0.07754670     0.37300
N973        N  0.33368975  0.08705323  0.06952739    -0.89300
H974        H  0.28098505  0.04125151  0.07355387     0.18400
H975        H  0.28773519  0.13227281  0.09640578     0.18400
N976        N  0.23581885  0.08721688  0.10054700    -0.88300
H977        H  0.32796823  0.07899706  0.05636772     0.35800
H978        H  0.33791855  0.07269592  0.07690629     0.40900
H979        H  0.22810403  0.07214222  0.11114213     0.40500
H980        H  0.21920651  0.08124337  0.09103047     0.35400
C981        C  0.20374906  0.41789441  0.11012287    -0.26300
C982        C  0.19657638  0.41593077  0.12858871    -0.14400
C983        C  0.19080175  0.43717332  0.13610439     0.36200
C984        C  0.19282808  0.45981130  0.12510383    -0.25800
C985        C  0.19998837  0.46149667  0.10679612    -0.15000
C986        C  0.20550172  0.44036227  0.09924571     0.37300
N987        N  0.21335800  0.44152597  0.08062647    -0.89300
H988        H  0.20841077  0.40207262  0.10406934     0.18400
H989        H  0.18858958  0.47616661  0.13078447     0.18400
N990        N  0.18276266  0.43576006  0.15478283    -0.88300
H991        H  0.23217459  0.46151552  0.07825217     0.35800
H992        H  0.19655626  0.44053913  0.07266042     0.40900
H993        H  0.16227632  0.41722207  0.15638332     0.40500
H994        H  0.18030464  0.45354650  0.15819674     0.35400
C995        C  0.10529554  0.98520830  0.05673878    -0.26300
C996        C  0.11109536  0.49623079  0.03983673    -0.14400
C997        C  0.14003435  0.50910513  0.03336434     0.36200
C998        C  0.16201427  0.51135431  0.04494591    -0.25800
C999        C  0.15599221  0.50087826  0.06278342    -0.15000
C1000       C  0.12700486  0.98674318  0.06837860     0.37300
N1001       N  0.11953556  0.97474443  0.08630891    -0.89300
H1002       H  0.08286472  0.97459717  0.06126648     0.18400
H1003       H  0.18409746  0.52126591  0.03986279     0.18400
N1004       N  0.14798084  0.51988465  0.01517280    -0.88300
H1005       H  0.09706587  0.96497724  0.08844104     0.35800
H1006       H  0.12948705  0.99199515  0.09543656     0.40900
H1007       H  0.12988188  0.51568979  0.00736301     0.40500
H1008       H  0.15681887  0.50824958  0.00907553     0.35400
C1009       C  0.38332233  0.27231662  0.08949550    -0.26300
C1010       C  0.35868770  0.27207349  0.08233975    -0.14400
C1011       C  0.33521265  0.24584794  0.07589244     0.36200
C1012       C  0.33695641  0.22025666  0.07667859    -0.25800
C1013       C  0.36185849  0.22049162  0.08358205    -0.15000
C1014       C  0.38506741  0.24682017  0.09028239     0.37300
N1015       N  0.41014364  0.24773692  0.09832387    -0.89300
H1016       H  0.40123032  0.29243137  0.09468728     0.18400
H1017       H  0.31905569  0.20019298  0.07145761     0.18400
N1018       N  0.31000634  0.24545635  0.06828788    -0.88300
H1019       H  0.41186340  0.25498248  0.11164070     0.35800
H1020       H  0.42854799  0.26313449  0.09130563     0.40900
H1021       H  0.31666141  0.25835469  0.05662239     0.40500
H1022       H  0.29467036  0.22442008  0.06417413     0.35400
C1023       C  0.31723101  0.32679157  0.12265686    -0.26300
C1024       C  0.31736881  0.33258016  0.10414921    -0.14400
C1025       C  0.29648169  0.33910453  0.09712891     0.36200
C1026       C  0.27596023  0.33967341  0.10869923    -0.25800
C1027       C  0.27557396  0.33374171  0.12729047    -0.15000
C1028       C  0.29651057  0.32706181  0.13431899     0.37300
N1029       N  0.29643644  0.31998607  0.15311765    -0.89300
H1030       H  0.33312743  0.32148313  0.12796220     0.18400
H1031       H  0.26008888  0.34469100  0.10301076     0.18400
N1032       N  0.29493231  0.34423702  0.07824132    -0.88300
H1033       H  0.31385212  0.31659932  0.15608535     0.35800
H1034       H  0.27746536  0.30015005  0.15549758     0.40900
H1035       H  0.29274545  0.32632875  0.07103276     0.40500
H1036       H  0.31432615  0.36268144  0.07437945     0.35400
C1037       C  0.43340169  0.38349859  0.06754389    -0.26300
C1038       C  0.40455050  0.37545357  0.06313185    -0.14400
C1039       C  0.39918673  0.38975030  0.04874093     0.36200
C1040       C  0.42263493  0.41161134  0.03912241    -0.25800
C1041       C  0.45149942  0.41934106  0.04332608    -0.15000
C1042       C  0.45696639  0.40534689  0.05782766     0.37300
N1043       N  0.48634689  0.41353117  0.06274067    -0.89300
H1044       H  0.43749335  0.37248775  0.07857651     0.18400
H1045       H  0.41821161  0.42211432  0.02793357     0.18400
N1046       N  0.37023850  0.38168387  0.04307440    -0.88300
H1047       H  0.48652564  0.40100135  0.07364269     0.35800
H1048       H  0.49654295  0.43508998  0.06723074     0.40900
H1049       H  0.35967656  0.38564009  0.05365142     0.40500
H1050       H  0.35900401  0.35942851  0.04016169     0.35400
C1051       C  0.47016261  0.19333984  0.07102419    -0.26300
C1052       C  0.47197323  0.16960408  0.07780369    -0.14400
C1053       C  0.44706854  0.14560123  0.08515306     0.36200
C1054       C  0.42070340  0.14587872  0.08563376    -0.25800
C1055       C  0.41880071  0.16993856  0.07924332    -0.15000
C1056       C  0.44404400  0.19385815  0.07164267     0.37300
N1057       N  0.44398785  0.21879249  0.06415700    -0.89300
H1058       H  0.48936497  0.21180817  0.06536178     0.18400
H1059       H  0.40172874  0.12746169  0.09150721     0.18400
N1060       N  0.44886411  0.12138385  0.09250999    -0.88300
H1061       H  0.44030902  0.22991553  0.07449338     0.35800
H1062       H  0.42743919  0.21186416  0.05447687     0.40900
H1063       H  0.42863407  0.10547883  0.09740867     0.40500
H1064       H  0.46295913  0.12898100  0.10364310     0.35400
C1065       C  0.08474391  0.20391822  0.11753353    -0.26300
C1066       C  0.07606963  0.21308734  0.10212015    -0.14400
C1067       C  0.08914919  0.24302833  0.09816316     0.36200
C1068       C  0.11016999  0.26333076  0.11004575    -0.25800
C1069       C  0.11817255  0.25428623  0.12588542    -0.15000
C1070       C  0.10541420  0.22408417  0.12949306     0.37300
N1071       N  0.11335544  0.21314492  0.14493018    -0.89300
H1072       H  0.07476748  0.18087591  0.12055075     0.18400
H1073       H  0.12001263  0.28636877  0.10707349     0.18400
N1074       N  0.08092318  0.25260196  0.08212847    -0.88300
H1075       H  0.10736930  0.21978386  0.15664469     0.35800
H1076       H  0.13592643  0.22177171  0.14487683     0.40900
H1077       H  0.08704801  0.24481212  0.07101521     0.40500
H1078       H  0.09252600  0.27536647  0.08120983     0.35400
C1079       C  0.05263314  0.13212208  0.04826196    -0.26300
C1080       C  0.03328619  0.12441749  0.06284531    -0.14400
C1081       C  0.01598935  0.09474549  0.06761962     0.36200
C1082       C  0.01704444  0.07339985  0.05710845    -0.25800
C1083       C  0.03563130  0.08101308  0.04213036    -0.15000
C1084       C  0.05398764  0.11067172  0.03790180     0.37300
N1085       N  0.07313435  0.11903183  0.02266403    -0.89300
H1086       H  0.06615146  0.15483900  0.04459409     0.18400
H1087       H  0.00332866  0.05068433  0.06071745     0.18400
N1088       N  0.99778411  0.08574545  0.08332756    -0.88300
H1089       H  0.59389118  0.13506295  0.02460740     0.35800
H1090       H  0.56588344  0.13174403  0.01180032     0.40900
H1091       H  0.98188681  0.09169703  0.08185382     0.40500
H1092       H  0.01070672  0.09658444  0.09457245     0.35400
C1093       C  0.04922020  0.68867893  0.09266978     0.03100
C1094       C  0.02324621  0.68929888  0.09022197    -0.13000
C1095       C  0.00074676  0.66834494  0.07950985     0.00600
C1096       C  0.00450244  0.64693990  0.07092333    -0.11600
C1097       C  0.03002676  0.64556268  0.07357233     0.03100
C1098       C  0.05250661  0.66670168  0.08430149    -0.11000
H1099       H  0.02036120  0.70588424  0.09687956     0.08700
H1100       H  0.48450305  0.62819355  0.06751863     0.06200
H1101       H  0.07224146  0.66569236  0.08641012     0.06100
C1102       C  0.38332984  0.85356327  0.07550036     0.03100
C1103       C  0.36213967  0.85498976  0.08610177    -0.13000
C1104       C  0.34121536  0.83016781  0.09534119     0.00600
C1105       C  0.34164452  0.80401372  0.09405604    -0.11600
C1106       C  0.36285294  0.80252439  0.08360732     0.03100
C1107       C  0.38367448  0.82731920  0.07444354    -0.11000
H1108       H  0.36223451  0.87538774  0.08747275     0.08700
H1109       H  0.32566597  0.78491924  0.10133403     0.06200
H1110       H  0.40011605  0.82614312  0.06638228     0.06100
C1111       C  0.18026225  0.00349373  0.07415691     0.03100
C1112       C  0.20639760  0.53207162  0.07512729    -0.13000
C1113       C  0.22992970  0.53619582  0.08597051     0.00600
C1114       C  0.22757373  0.51296643  0.09638525    -0.11600
C1115       C  0.20076334  0.98169467  0.09411711     0.03100
C1116       C  0.17761841  0.97928752  0.08363173    -0.11000
H1117       H  0.20842830  0.54987867  0.06683292     0.08700
H1118       H  0.24574777  0.51591623  0.10469231     0.06200
H1119       H  0.15788688  0.95835064  0.08254394     0.06100
C1120       C  0.34061552  0.64388031  0.08274363     0.80200
N1121       N  0.34092845  0.66967073  0.08266614    -0.78100
C1122       C  0.36647766  0.69530659  0.08243467     0.82600
N1123       N  0.39193239  0.69495951  0.08220588    -0.78100
C1124       C  0.39215520  0.66944817  0.08219027     0.82700
N1125       N  0.36634302  0.64398817  0.08259500    -0.79800
C1126       C  0.37778460  0.99065296  0.93046600     0.03100
C1127       C  0.38543297  0.51765587  0.92083616    -0.13000
C1128       C  0.36169018  0.51484860  0.91075825     0.00600
C1129       C  0.33023020  0.98482890  0.91021839    -0.11600
C1130       C  0.32769304  0.96098411  0.92004795     0.03100
C1131       C  0.35133330  0.96418778  0.93038312    -0.11000
H1132       H  0.40543631  0.53845773  0.92140172     0.08700
H1133       H  0.31189982  0.98254843  0.90235774     0.06200
H1134       H  0.34911868  0.94605431  0.93842253     0.06100
C1135       C  0.21286264  0.66216455  0.90255487     0.03100
C1136       C  0.19319332  0.63925260  0.91371278    -0.13000
C1137       C  0.17384333  0.64286948  0.92488050     0.00600
C1138       C  0.17382950  0.66933490  0.92454043    -0.11600
C1139       C  0.19317752  0.69219036  0.91339945     0.03100
C1140       C  0.21236425  0.68840824  0.90226941    -0.11000
H1141       H  0.19326631  0.61883627  0.91393396     0.08700
H1142       H  0.15888003  0.67225273  0.93307255     0.06200
H1143       H  0.22738152  0.70616399  0.89368159     0.06100
C1144       C  0.21818764  0.85208402  0.91986076     0.80200
N1145       N  0.21792506  0.82642161  0.91810783    -0.78100
C1146       C  0.19233545  0.80081203  0.91714725     0.82600
N1147       N  0.16687499  0.80108824  0.91805197    -0.78100
C1148       C  0.16675102  0.82651864  0.91980884     0.82700
N1149       N  0.19250318  0.85186971  0.92059469    -0.79800
C1150       C  0.00961266  0.80965538  0.90951360     0.03100
C1151       C  0.00730824  0.83205371  0.91811712    -0.13000
C1152       C  0.03105618  0.85362464  0.92785918     0.00600
C1153       C  0.05701711  0.85280412  0.92901626    -0.11600
C1154       C  0.05947075  0.83047628  0.92062308     0.03100
C1155       C  0.03546568  0.80862826  0.91135216    -0.11000
H1156       H  0.48420462  0.82909969  0.92010274     0.08700
H1157       H  0.07511897  0.86931542  0.93674532     0.06200
H1158       H  0.03719591  0.79109044  0.90509225     0.06100
Zn1159     Zn  0.03081175  0.96419339  0.01031893     1.49700
Zn1160     Zn  0.06676558  0.53296548  0.00946372     1.49400
Zn1161     Zn  0.03108564  0.99986751  0.97501899     1.49100
Zn1162     Zn  0.49743705  0.00152473  0.01223544     1.49500
O1163       O  0.03188300  0.99964062  0.00152167    -1.84200
O1164       O  0.06668716  0.97438005  0.02492039    -0.74800
O1165       O  0.09095905  0.55624594  0.98825374    -0.74600
O1166       O  0.03024624  0.96427317  0.96493400    -0.74100
O1167       O  0.09127085  0.52082612  0.02368386    -0.74800
O1168       O  0.02961092  0.93941271  0.98932982    -0.74400
O1169       O  0.06460459  0.53237245  0.96436822    -0.75000
O1170       O  0.47138691  0.00083775  0.99211226    -0.74400
O1171       O  0.05905912  0.55933755  0.02532516    -0.75100
O1172       O  0.49287045  0.99801270  0.96712135    -0.74500
O1173       O  0.01074759  0.53617342  0.02694490    -0.75000
O1174       O  0.47234049  0.96739388  0.02818811    -0.74900
O1175       O  0.49521007  0.94182321  0.02886775    -0.74700
C1176       C  0.08906652  0.99854165  0.02893676     0.77100
C1177       C  0.08756283  0.55335087  0.97119047     0.77600
C1178       C  0.02949388  0.94210822  0.97221192     0.76600
C1179       C  0.47200311  0.99901999  0.97498282     0.76900
C1180       C  0.03559997  0.55741600  0.03121824     0.78100
C1181       C  0.47428652  0.94564989  0.03367099     0.77100
C1182       C  0.34712978  0.83023114  0.74212272     0.03100
C1183       C  0.34527036  0.80745874  0.75286021    -0.13000
C1184       C  0.36931029  0.81160434  0.76336195     0.00600
C1185       C  0.39498366  0.83882759  0.76292220    -0.11600
C1186       C  0.39683579  0.86145384  0.75214892     0.03100
C1187       C  0.37298411  0.85700160  0.74170129    -0.11000
H1188       H  0.32546407  0.78649394  0.75264736     0.08700
H1189       H  0.41362016  0.84255033  0.77102080     0.06200
H1190       H  0.37460841  0.87426733  0.73301029     0.06100
C1191       C  0.19489838  0.97162794  0.74262919     0.03100
C1192       C  0.21881327  0.99177381  0.75292958    -0.13000
C1193       C  0.21882990  0.51540586  0.75995767     0.00600
C1194       C  0.19214294  0.51507958  0.76076475    -0.11600
C1195       C  0.16607506  0.99214448  0.75436175     0.03100
C1196       C  0.16843966  0.97166885  0.74366642    -0.11000
H1197       H  0.23947797  0.99229520  0.75196082     0.08700
H1198       H  0.19006765  0.53055305  0.76928063     0.06200
H1199       H  0.14971639  0.95597660  0.73599067     0.06100
C1200       C  0.00874084  0.65666397  0.76187519     0.03100
C1201       C  0.02971266  0.68081711  0.75193578    -0.13000
C1202       C  0.04888954  0.67790940  0.74014264     0.00600
C1203       C  0.04771591  0.65098513  0.73873130    -0.11600
C1204       C  0.02763181  0.62704529  0.74886117     0.03100
C1205       C  0.00805434  0.62984811  0.76023465    -0.11000
H1206       H  0.03121823  0.70186496  0.75333902     0.08700
H1207       H  0.06285714  0.64878140  0.72995489     0.06200
H1208       H  0.49938030  0.61404496  0.77239438     0.06100
C1209       C  0.00571619  0.96781186  0.75387754     0.80200
N1210       N  0.00646219  0.99383605  0.75350250    -0.78100
C1211       C  0.03281260  0.52049144  0.74912304     0.82600
N1212       N  0.05834466  0.52021788  0.74971681    -0.78100
C1213       C  0.05712577  0.99261217  0.75410153     0.82700
N1214       N  0.03116756  0.96747998  0.75423495    -0.79800
Zn1215     Zn  0.40016324  0.69464538  0.82695358     1.49700
Zn1216     Zn  0.36525964  0.62505915  0.82732771     1.49400
Zn1217     Zn  0.36184905  0.66083669  0.86151446     1.49100
Zn1218     Zn  0.33083854  0.66022767  0.82437301     1.49500
O1219       O  0.36454041  0.66010440  0.83507670    -1.84200
O1220       O  0.42527987  0.68376316  0.81218998    -0.74800
O1221       O  0.36491204  0.60188152  0.84897246    -0.74600
O1222       O  0.39563204  0.69743786  0.87199872    -0.74100
O1223       O  0.40200283  0.63538590  0.81350993    -0.74800
O1224       O  0.42336948  0.71921404  0.84818409    -0.74400
O1225       O  0.36254899  0.62637732  0.87268029    -0.75000
O1226       O  0.30294453  0.65859996  0.84341439    -0.74400
O1227       O  0.33105365  0.59976326  0.81086832    -0.75100
O1228       O  0.32467279  0.65949294  0.86924520    -0.74500
O1229       O  0.30913219  0.62595128  0.80783128    -0.75000
O1230       O  0.34286199  0.69668876  0.80994382    -0.74900
O1231       O  0.39108405  0.72033068  0.81144932    -0.74700
C1232       C  0.42342119  0.65949731  0.80832838     0.77100
C1233       C  0.36417889  0.60513258  0.86596677     0.77600
C1234       C  0.41861305  0.71833555  0.86512113     0.76600
C1235       C  0.30347272  0.65879731  0.86061565     0.76900
C1236       C  0.31118552  0.60365620  0.80390924     0.78100
C1237       C  0.36745438  0.71850238  0.80593515     0.77100
C1238       C  0.20633365  0.68362695  0.59604575     0.03100
C1239       C  0.18180706  0.66177366  0.58697736    -0.13000
C1240       C  0.18438064  0.64250398  0.57520427     0.00600
C1241       C  0.21175370  0.64506722  0.57259154    -0.11600
C1242       C  0.23623288  0.66558323  0.58225787     0.03100
C1243       C  0.23336873  0.68491757  0.59391092    -0.11000
H1244       H  0.16055557  0.65944219  0.58925729     0.08700
H1245       H  0.21395417  0.63073075  0.56311436     0.06200
H1246       H  0.25210946  0.70081147  0.60145119     0.06100
C1247       C  0.03094774  0.84783282  0.57363631     0.03100
C1248       C  0.00503079  0.82093400  0.57288042    -0.13000
C1249       C  0.50416214  0.79473979  0.58091343     0.00600
C1250       C  0.02653584  0.79894665  0.59148611    -0.11600
C1251       C  0.05291299  0.82551918  0.59217321     0.03100
C1252       C  0.05493967  0.84998100  0.58323898    -0.11000
H1253       H  0.48803698  0.81610132  0.56339398     0.08700
H1254       H  0.02428748  0.78018918  0.59881494     0.06200
H1255       H  0.07507811  0.87064617  0.58381167     0.06100
C1256       C  0.38558284  0.99528651  0.57392168     0.03100
C1257       C  0.38451775  0.52104707  0.57498644    -0.13000
C1258       C  0.36350473  0.52311686  0.58515778     0.00600
C1259       C  0.34457707  0.00091922  0.59484653    -0.11600
C1260       C  0.34480771  0.97452409  0.59522168     0.03100
C1261       C  0.36519972  0.97167520  0.58445961    -0.11000
H1262       H  0.39919023  0.53919715  0.56650829     0.08700
H1263       H  0.32743834  0.50134124  0.60330202     0.06200
H1264       H  0.36526634  0.95126433  0.58429488     0.06100
C1265       C  0.39504752  0.68483087  0.58065370     0.80200
N1266       N  0.36970327  0.68553963  0.57987506    -0.78100
C1267       C  0.34344628  0.66050527  0.57993117     0.82600
N1268       N  0.34286768  0.63464300  0.58077599    -0.78100
C1269       C  0.36781887  0.63356566  0.58185821     0.82700
N1270       N  0.39380726  0.65865714  0.58181043    -0.79800
Zn1271     Zn  0.16413045  0.79308215  0.65889141     1.49700
Zn1272     Zn  0.19702336  0.82651953  0.69520965     1.49400
Zn1273     Zn  0.23336701  0.82680080  0.66060130     1.49100
Zn1274     Zn  0.19969432  0.86283985  0.65967701     1.49500
O1275       O  0.19846629  0.82731948  0.66863084    -1.84200
O1276       O  0.13746554  0.76867923  0.67920811    -0.74800
O1277       O  0.23176008  0.82549814  0.70592358    -0.74600
O1278       O  0.22344649  0.78970593  0.64751895    -0.74100
O1279       O  0.15989806  0.79149694  0.70439351    -0.74800
O1280       O  0.17533793  0.76766856  0.64445632    -0.74400
O1281       O  0.25820321  0.82945495  0.68181953    -0.75000
O1282       O  0.23566993  0.88676157  0.64452672    -0.74400
O1283       O  0.19857173  0.86288493  0.70479298    -0.75100
O1284       O  0.25768286  0.86034443  0.64376976    -0.74500
O1285       O  0.20055044  0.88806227  0.68026621    -0.75000
O1286       O  0.16446812  0.85327391  0.64419410    -0.74900
O1287       O  0.14130653  0.80499972  0.64246445    -0.74700
C1288       C  0.13833887  0.77041989  0.69640721     0.77100
C1289       C  0.25473890  0.82779317  0.69889321     0.77600
C1290       C  0.19959669  0.76880181  0.64161246     0.76600
C1291       C  0.25618426  0.88270964  0.63911902     0.76900
C1292       C  0.20006803  0.88533400  0.69739466     0.78100
C1293       C  0.14357288  0.82939608  0.63825051     0.77100
C1294       C  0.36174678  0.81191044  0.40769843     0.03100
C1295       C  0.38560226  0.83208032  0.41798449    -0.13000
C1296       C  0.38326258  0.85257647  0.42871085     0.00600
C1297       C  0.35682633  0.85264324  0.42934482    -0.11600
C1298       C  0.33276761  0.83244062  0.41921581     0.03100
C1299       C  0.33533214  0.81200386  0.40855863    -0.11000
H1300       H  0.40610476  0.83219836  0.41739318     0.08700
H1301       H  0.35498152  0.86832954  0.43778257     0.06200
H1302       H  0.31675688  0.79625143  0.40079628     0.06100
C1303       C  0.03356893  0.64490594  0.42778630     0.03100
C1304       C  0.05955397  0.67191777  0.42751051    -0.13000
C1305       C  0.06188251  0.69512451  0.41703742     0.00600
C1306       C  0.03796717  0.69114265  0.40672179    -0.11600
C1307       C  0.01177854  0.66447914  0.40686259     0.03100
C1308       C  0.00972028  0.64125709  0.41729925    -0.11000
H1309       H  0.07804003  0.67490028  0.43549379     0.08700
H1310       H  0.03977286  0.70886918  0.39841801     0.06200
H1311       H  0.49001658  0.61967559  0.41395212     0.06100
C1312       C  0.21987243  0.51903720  0.40964269     0.03100
C1313       C  0.20047566  0.52199420  0.42115987    -0.13000
C1314       C  0.18011898  0.49804138  0.43137700     0.00600
C1315       C  0.17779077  0.96891162  0.42738482    -0.11600
C1316       C  0.19854239  0.96703611  0.41660858     0.03100
C1317       C  0.21891716  0.99168087  0.40701340    -0.11000
H1318       H  0.20098769  0.54266068  0.42200503     0.08700
H1319       H  0.16126079  0.94959845  0.43419000     0.06200
H1320       H  0.23434084  0.99020143  0.39811936     0.06100
C1321       C  0.17107259  0.80490140  0.41449616     0.80200
N1322       N  0.19684024  0.80537103  0.41609815    -0.78100
C1323       C  0.22244492  0.83084406  0.41696047     0.82600
N1324       N  0.22206700  0.85628293  0.41620436    -0.78100
C1325       C  0.19656095  0.85645636  0.41464803     0.82700
N1326       N  0.17112407  0.83062108  0.41388761    -0.79800
Zn1327     Zn  0.03191697  0.99788470  0.47602571     1.49700
Zn1328     Zn  0.03149141  0.53247972  0.51252927     1.49400
Zn1329     Zn  0.49975173  0.96098718  0.51001208     1.49100
Zn1330     Zn  0.06802182  0.99882437  0.51125000     1.49500
O1331       O  0.03298923  0.99856138  0.50259992    -1.84200
O1332       O  0.03161519  0.53347976  0.46712790    -0.74800
O1333       O  0.49841713  0.52256247  0.52547801    -0.74600
O1334       O  0.47570340  0.93558716  0.48924910    -0.74100
O1335       O  0.03062107  0.55697517  0.49162136    -0.74800
O1336       O  0.49921868  0.96027743  0.46468256    -0.74400
O1337       O  0.47389634  0.96995855  0.52556086    -0.75000
O1338       O  0.05823963  0.96318730  0.52609225    -0.74400
O1339       O  0.06692261  0.55787122  0.52786498    -0.75100
O1340       O  0.00997258  0.93968566  0.52740930    -0.74500
O1341       O  0.09109104  0.53367320  0.52801870    -0.75000
O1342       O  0.09273812  0.99995182  0.49046387    -0.74900
O1343       O  0.06808796  0.99918985  0.46597292    -0.74700
C1344       C  0.03098403  0.55489942  0.47446218     0.77100
C1345       C  0.47465315  0.99362284  0.52973897     0.77600
C1346       C  0.47806921  0.93809334  0.47211312     0.76600
C1347       C  0.03432193  0.94179759  0.53151985     0.76900
C1348       C  0.08860745  0.55535395  0.53285601     0.78100
C1349       C  0.09030926  0.00008849  0.47334424     0.77100
C1350       C  0.36445521  0.52146231  0.26021819     0.03100
C1351       C  0.39125260  0.52204244  0.25937581    -0.13000
C1352       C  0.39137698  0.00198278  0.25014971     0.00600
C1353       C  0.36793467  0.98163208  0.23986783    -0.11600
C1354       C  0.34091005  0.98032244  0.24061417     0.03100
C1355       C  0.33726501  0.99941369  0.25199748    -0.11000
H1356       H  0.40971956  0.53804860  0.26709511     0.08700
H1357       H  0.37078652  0.96678727  0.23118724     0.06200
H1358       H  0.31614948  0.99792545  0.25288236     0.06100
C1359       C  0.19145598  0.68313427  0.24107183     0.03100
C1360       C  0.21419292  0.68501359  0.25184550    -0.13000
C1361       C  0.21153525  0.66018958  0.26064529     0.00600
C1362       C  0.18593238  0.63322228  0.25808167    -0.11600
C1363       C  0.16303773  0.63111183  0.24738561     0.03100
C1364       C  0.16597342  0.65616334  0.23895599    -0.11000
H1365       H  0.23363597  0.70599286  0.25370787     0.08700
H1366       H  0.18352399  0.61389813  0.26467261     0.06200
H1367       H  0.14834556  0.65461897  0.23065965     0.06100
C1368       C  0.00684383  0.81725512  0.25920396     0.03100
C1369       C  0.00602445  0.84335419  0.25820839    -0.13000
C1370       C  0.02614638  0.86658556  0.24758506     0.00600
C1371       C  0.04641527  0.86332881  0.23726672    -0.11600
C1372       C  0.04732163  0.83732304  0.23782925     0.03100
C1373       C  0.02743891  0.81431264  0.24883270    -0.11000
H1374       H  0.48838050  0.84378602  0.26529192     0.08700
H1375       H  0.06159271  0.88117002  0.22878446     0.06200
H1376       H  0.02861628  0.79451305  0.24978871     0.06100
C1377       C  0.05127693  0.52437102  0.24397817     0.80200
N1378       N  0.02583045  0.52470600  0.24465392    -0.78100
C1379       C  0.00253321  0.00294170  0.24606598     0.82600
N1380       N  0.00202147  0.97708619  0.24560387    -0.78100
C1381       C  0.02700744  0.97602242  0.24436526     0.82700
N1382       N  0.05289592  0.00127874  0.24359568    -0.79800
Zn1383     Zn  0.22990772  0.83357904  0.17746729     1.49700
Zn1384     Zn  0.19431084  0.86752171  0.17589625     1.49400
Zn1385     Zn  0.19541472  0.83168965  0.14163053     1.49100
Zn1386     Zn  0.16056208  0.79789438  0.17753272     1.49500
O1387       O  0.19493287  0.83258649  0.16810874    -1.84200
O1388       O  0.25347684  0.86943510  0.19216159    -0.74800
O1389       O  0.19267495  0.89030140  0.15464328    -0.74600
O1390       O  0.23096946  0.83105842  0.13257462    -0.74100
O1391       O  0.22970322  0.89400692  0.19067053    -0.74800
O1392       O  0.25525092  0.83315819  0.15747491    -0.74400
O1393       O  0.19547905  0.86679766  0.13064124    -0.75000
O1394       O  0.13583116  0.77260520  0.15694070    -0.74400
O1395       O  0.15943435  0.85714624  0.19136927    -0.75100
O1396       O  0.15984316  0.79596238  0.13223653    -0.74500
O1397       O  0.13545629  0.80883648  0.19230301    -0.75000
O1398       O  0.17203799  0.77415493  0.19365745    -0.74900
O1399       O  0.22030468  0.79931488  0.19351675    -0.74700
C1400       C  0.25096354  0.89134428  0.19634328     0.77100
C1401       C  0.19365407  0.88779727  0.13759699     0.77600
C1402       C  0.25290176  0.83192832  0.14034128     0.76600
C1403       C  0.13802536  0.77461695  0.13978944     0.76900
C1404       C  0.13797827  0.83321201  0.19671186     0.78100
C1405       C  0.19656773  0.77745164  0.19865603     0.77100
Zn1406     Zn  0.36220502  0.70108255  0.32533337     1.49700
Zn1407     Zn  0.36471272  0.66635041  0.36019697     1.49400
Zn1408     Zn  0.32647655  0.63139657  0.32581031     1.49100
Zn1409     Zn  0.39597593  0.66537572  0.32352988     1.49500
O1410       O  0.36229010  0.66601463  0.33372633    -1.84200
O1411       O  0.36259573  0.72518437  0.34631565    -0.74800
O1412       O  0.32938520  0.63181915  0.37099845    -0.74600
O1413       O  0.30163551  0.64263627  0.31100869    -0.74100
O1414       O  0.36675039  0.70262202  0.37046475    -0.74800
O1415       O  0.32692063  0.69099929  0.30980854    -0.74400
O1416       O  0.30301259  0.60745699  0.34724168    -0.75000
O1417       O  0.38364463  0.62993427  0.30826543    -0.74400
O1418       O  0.40010843  0.66445655  0.36859224    -0.75100
O1419       O  0.33526412  0.60582035  0.30987169    -0.74500
O1420       O  0.42180708  0.66418635  0.34311266    -0.75000
O1421       O  0.42001832  0.70059682  0.30798187    -0.74900
O1422       O  0.39779820  0.72663678  0.31050673    -0.74700
C1423       C  0.36516397  0.72372179  0.36335357     0.77100
C1424       C  0.30681967  0.61018729  0.36431360     0.77600
C1425       C  0.30484435  0.66680818  0.30539575     0.76600
C1426       C  0.35903251  0.60833019  0.30412286     0.76900
C1427       C  0.42076474  0.66367365  0.36029995     0.78100
C1428       C  0.41829853  0.72319632  0.30440167     0.77100
C1429       C  0.04945012  0.94634204  0.25323855    -0.26300
C1430       C  0.02622482  0.94768755  0.24499061    -0.14400
C1431       C  0.00245045  0.92189849  0.23800825     0.36200
C1432       C  0.00268057  0.89552063  0.23929738    -0.25800
C1433       C  0.02617159  0.89446608  0.24725908    -0.15000
C1434       C  0.04954095  0.92008479  0.25457057     0.37300
N1435       N  0.07316573  0.91987190  0.26392993    -0.89300
H1436       H  0.06747829  0.96576099  0.25902919     0.18400
H1437       H  0.48003346  0.87104225  0.23701775     0.18400
N1438       N  0.47176471  0.91680471  0.23492966    -0.88300
H1439       H  0.08399867  0.91329223  0.25501763     0.35800
H1440       H  0.06456564  0.90474828  0.27449217     0.40900
H1441       H  0.45525075  0.89549089  0.23229690     0.40500
H1442       H  0.47594507  0.92819102  0.22272490     0.35400
C1443       C  0.45744129  0.77420194  0.30003503    -0.26300
C1444       C  0.44071039  0.74609619  0.29297292    -0.14400
C1445       C  0.44532361  0.74029220  0.27507694     0.36200
C1446       C  0.46663300  0.76294661  0.26450706    -0.25800
C1447       C  0.48344895  0.79113122  0.27154760    -0.15000
C1448       C  0.47900336  0.79665424  0.28956270     0.37300
N1449       N  0.49676100  0.82485337  0.29738192    -0.89300
H1450       H  0.45404254  0.77862829  0.31383888     0.18400
H1451       H  0.46980429  0.75875494  0.25061001     0.18400
N1452       N  0.42751099  0.71180065  0.26747695    -0.88300
H1453       H  0.48307963  0.83253633  0.30177844     0.35800
H1454       H  0.50727979  0.82250539  0.30870898     0.40900
H1455       H  0.43260907  0.69751448  0.27418036     0.40500
H1456       H  0.43271911  0.71159128  0.25387897     0.35400
C1457       C  0.08628032  0.81102195  0.20645960    -0.26300
C1458       C  0.11523020  0.83376545  0.20801225    -0.14400
C1459       C  0.12184454  0.85712432  0.21987201     0.36200
C1460       C  0.09928788  0.85758011  0.22948744    -0.25800
C1461       C  0.07026996  0.83518746  0.22764147    -0.15000
C1462       C  0.06366269  0.81164726  0.21598184     0.37300
N1463       N  0.03399319  0.78893951  0.21345953    -0.89300
H1464       H  0.08113549  0.79316174  0.19730531     0.18400
H1465       H  0.10439337  0.87545407  0.23862605     0.18400
N1466       N  0.15143404  0.88011753  0.22229512    -0.88300
H1467       H  0.03288918  0.77324785  0.20445209     0.35800
H1468       H  0.02272873  0.79828680  0.20740639     0.40900
H1469       H  0.16296664  0.87099622  0.22827367     0.40500
H1470       H  0.15245857  0.89573886  0.23133258     0.35400
C1471       C  0.10498186  0.55226177  0.23839092    -0.26300
C1472       C  0.07975474  0.55198755  0.24461584    -0.14400
C1473       C  0.08238652  0.57801704  0.25159573     0.36200
C1474       C  0.10975047  0.60332676  0.25229000    -0.25800
C1475       C  0.13487610  0.60345572  0.24626652    -0.15000
C1476       C  0.13234144  0.57758304  0.23909377     0.37300
N1477       N  0.15685836  0.57657342  0.23182344    -0.89300
H1478       H  0.10348428  0.53270256  0.23276548     0.18400
H1479       H  0.11143306  0.62304580  0.25780549     0.18400
N1480       N  0.05754613  0.57887929  0.25840667    -0.88300
H1481       H  0.17190501  0.58067106  0.24214271     0.35800
H1482       H  0.16661858  0.59279902  0.22198166     0.40900
H1483       H  0.05541408  0.59469176  0.25115177     0.40500
H1484       H  0.06150721  0.58534393  0.27194106     0.35400
C1485       C  0.21735377  0.72445092  0.21961697    -0.26300
C1486       C  0.19428596  0.70919487  0.23170281    -0.14400
C1487       C  0.17333926  0.71795366  0.23397497     0.36200
C1488       C  0.17485847  0.74062009  0.22323475    -0.25800
C1489       C  0.19731323  0.75522699  0.21057982    -0.15000
C1490       C  0.21921146  0.74735881  0.20913645     0.37300
N1491       N  0.24287923  0.76123830  0.19662915    -0.89300
H1492       H  0.23358075  0.71788771  0.21788417     0.18400
H1493       H  0.15839198  0.74690280  0.22473739     0.18400
N1494       N  0.15059891  0.70371454  0.24715022    -0.88300
H1495       H  0.25565502  0.78317813  0.20016682     0.35800
H1496       H  0.23444081  0.75970175  0.18364517     0.40900
H1497       H  0.13702154  0.71276861  0.24718693     0.40500
H1498       H  0.16047260  0.70782878  0.25990207     0.35400
C1499       C  0.26458279  0.67928593  0.26664346    -0.26300
C1500       C  0.23553820  0.66250535  0.27242531    -0.14400
C1501       C  0.22993690  0.64812825  0.28928652     0.36200
C1502       C  0.25301784  0.64990301  0.29958135    -0.25800
C1503       C  0.28194135  0.66642441  0.29374875    -0.15000
C1504       C  0.28784461  0.68133185  0.27695274     0.37300
N1505       N  0.31672622  0.69788310  0.26956205    -0.89300
H1506       H  0.26928790  0.69027674  0.25367892     0.18400
H1507       H  0.24828920  0.63860393  0.31245110     0.18400
N1508       N  0.20094454  0.63237576  0.29633641    -0.88300
H1509       H  0.31686878  0.68848293  0.25718548     0.35800
H1510       H  0.33224039  0.69651386  0.27753634     0.40900
H1511       H  0.20061984  0.64152264  0.30876466     0.40500
H1512       H  0.19591405  0.61087253  0.29865572     0.35400
C1513       C  0.41953421  0.97722305  0.25588490    -0.26300
C1514       C  0.41926448  0.00210082  0.24964503    -0.14400
C1515       C  0.44877382  0.52754167  0.24184705     0.36200
C1516       C  0.47474322  0.52659650  0.24195407    -0.25800
C1517       C  0.47117209  0.99940097  0.24910252    -0.15000
C1518       C  0.44519156  0.97563721  0.25585727     0.37300
N1519       N  0.44495035  0.95023340  0.26299208    -0.89300
H1520       H  0.39958486  0.95904710  0.26104402     0.18400
H1521       H  0.49452819  0.54581304  0.23761874     0.18400
N1522       N  0.44980550  0.55366201  0.23529986    -0.88300
H1523       H  0.42401554  0.93468698  0.26714318     0.35800
H1524       H  0.45801032  0.95659529  0.27459398     0.40900
H1525       H  0.42912229  0.55135524  0.23432548     0.40500
H1526       H  0.45765103  0.55706742  0.22205155     0.35400
C1527       C  0.27972235  0.94302660  0.20637415    -0.26300
C1528       C  0.27308570  0.91393685  0.20825056    -0.14400
C1529       C  0.28779183  0.90672121  0.22146105     0.36200
C1530       C  0.30932529  0.92880450  0.23209821    -0.25800
C1531       C  0.31646200  0.95789593  0.22992741    -0.15000
C1532       C  0.30155916  0.96519465  0.21697792     0.37300
N1533       N  0.30922459  0.99507190  0.21430799    -0.89300
H1534       H  0.26847969  0.94858879  0.19623847     0.18400
H1535       H  0.32075379  0.92334210  0.24216770     0.18400
N1536       N  0.28066600  0.87698892  0.22416767    -0.88300
H1537       H  0.29623608  0.99671932  0.20423096     0.35800
H1538       H  0.33260935  0.50493020  0.20755358     0.40900
H1539       H  0.25926990  0.86547157  0.22894503     0.40500
H1540       H  0.29382638  0.87555230  0.23421382     0.35400
C1541       C  0.35009791  0.55933737  0.26440305    -0.26300
C1542       C  0.36129614  0.54248113  0.27183435    -0.14400
C1543       C  0.37012765  0.54642228  0.29012026     0.36200
C1544       C  0.36897800  0.56811580  0.30029409    -0.25800
C1545       C  0.35836654  0.58531528  0.29277490    -0.15000
C1546       C  0.34855978  0.58079084  0.27462024     0.37300
N1547       N  0.33759656  0.59779290  0.26599397    -0.89300
H1548       H  0.34321919  0.55635517  0.25038079     0.18400
H1549       H  0.37625062  0.57155880  0.31424593     0.18400
N1550       N  0.37996434  0.52819532  0.29832151    -0.88300
H1551       H  0.35176065  0.60940826  0.25542132     0.35800
H1552       H  0.33762955  0.61323435  0.27471196     0.40900
H1553       H  0.36240411  0.50686448  0.29834508     0.40500
H1554       H  0.38567006  0.53394706  0.31183622     0.35400
C1555       C  0.17444936  0.91456475  0.40830837    -0.31700
C1556       C  0.19876395  0.93921488  0.41545556    -0.14400
C1557       C  0.22234946  0.93658328  0.42216518     0.36200
C1558       C  0.22116896  0.90961942  0.42157186    -0.25800
C1559       C  0.19679649  0.88473411  0.41449622    -0.15000
C1560       C  0.17329983  0.88748600  0.40766421     0.37300
N1561       N  0.14839905  0.86306799  0.39979787    -0.89300
H1562       H  0.15624548  0.91637625  0.40313419     0.18400
H1563       H  0.23936706  0.90810903  0.42705295     0.18400
N1564       N  0.24729852  0.96062487  0.43031173    -0.88300
H1565       H  0.14626664  0.86844937  0.38648527     0.35800
H1566       H  0.12994878  0.85956261  0.40696948     0.40900
H1567       H  0.24024644  0.96870768  0.44083740     0.40500
H1568       H  0.25781992  0.97699658  0.42065472     0.35400
C1569       C  0.25782183  0.56641462  0.36891575    -0.26300
C1570       C  0.28440770  0.58765381  0.37647500    -0.14400
C1571       C  0.28890780  0.58667029  0.39533580     0.36200
C1572       C  0.26679005  0.56477810  0.40597146    -0.25800
C1573       C  0.24065062  0.54347118  0.39822419    -0.15000
C1574       C  0.23599784  0.54440673  0.37946460     0.37300
N1575       N  0.20966699  0.52330377  0.37057533    -0.89300
H1576       H  0.25382638  0.56670181  0.35456342     0.18400
H1577       H  0.27034600  0.56365738  0.42031940     0.18400
N1578       N  0.31602032  0.60730043  0.40363693    -0.88300
H1579       H  0.19977605  0.53442228  0.36508821     0.35800
H1580       H  0.19467177  0.50813854  0.37964520     0.40900
H1581       H  0.33207886  0.60311673  0.39874272     0.40500
H1582       H  0.31526697  0.60406384  0.41761531     0.35400
C1583       C  0.13849694  0.00701467  0.43321344    -0.26300
C1584       C  0.15659866  0.99756911  0.44095578    -0.14400
C1585       C  0.15726632  0.49512985  0.46178825     0.36200
C1586       C  0.13270551  0.99236992  0.46980529    -0.25800
C1587       C  0.11367377  0.00064303  0.46197287    -0.15000
C1588       C  0.11732913  0.00904221  0.44355383     0.37300
N1589       N  0.09995589  0.01998866  0.43546133    -0.89300
H1590       H  0.14092410  0.01283374  0.41901138     0.18400
H1591       H  0.13455617  0.49143475  0.48636581     0.18400
N1592       N  0.17821571  0.49009907  0.47100462    -0.88300
H1593       H  0.08498540  0.49626949  0.42594661     0.35800
H1594       H  0.10539420  0.03963985  0.44185639     0.40900
H1595       H  0.19511478  0.00070425  0.46632048     0.40500
H1596       H  0.17126157  0.96457801  0.46365484     0.35400
C1597       C  0.11706185  0.77624047  0.41859018    -0.26300
C1598       C  0.14310233  0.77659426  0.41431743    -0.14400
C1599       C  0.14200836  0.74978999  0.41063106     0.36200
C1600       C  0.11537693  0.72357876  0.41198925    -0.25800
C1601       C  0.08959183  0.72336140  0.41644456    -0.15000
C1602       C  0.09041455  0.74997449  0.41977232     0.37300
N1603       N  0.06428053  0.75018299  0.42469130    -0.89300
H1604       H  0.11751296  0.79649644  0.42145613     0.18400
H1605       H  0.11457337  0.70313761  0.40913606     0.18400
N1606       N  0.16771294  0.74912774  0.40522231    -0.88300
H1607       H  0.06853997  0.77148992  0.42662787     0.35800
H1608       H  0.05734750  0.73954978  0.43714522     0.40900
H1609       H  0.17397770  0.75926003  0.39260506     0.40500
H1610       H  0.16322865  0.72768650  0.40343597     0.35400
C1611       C  0.49088014  0.66428006  0.37351867    -0.26300
C1612       C  0.48756446  0.66039990  0.39228111    -0.14400
C1613       C  0.46189319  0.65678563  0.40043207     0.36200
C1614       C  0.44044832  0.65760562  0.38975324    -0.25800
C1615       C  0.44386076  0.66202733  0.37093635    -0.15000
C1616       C  0.46938652  0.66505604  0.36278907     0.37300
N1617       N  0.47403913  0.66955753  0.34370563    -0.89300
H1618       H  0.01212934  0.67085613  0.37103780     0.18400
H1619       H  0.42109489  0.65510085  0.39634773     0.18400
N1620       N  0.45752140  0.65350015  0.41958774    -0.88300
H1621       H  0.47686254  0.65282111  0.33848228     0.35800
H1622       H  0.49332813  0.68925635  0.34162072     0.40900
H1623       H  0.47501610  0.67116512  0.42595805     0.40500
H1624       H  0.45705605  0.63436903  0.42363697     0.35400
C1625       C  0.02314643  0.57191699  0.44433853    -0.26300
C1626       C  0.03083065  0.57783362  0.46272810    -0.14400
C1627       C  0.03880170  0.60578303  0.46944921     0.36200
C1628       C  0.03904477  0.62694198  0.45787232    -0.25800
C1629       C  0.03153694  0.62108461  0.43954575    -0.15000
C1630       C  0.02345457  0.59321345  0.43269184     0.37300
N1631       N  0.01619838  0.58683735  0.41388922    -0.89300
H1632       H  0.01700703  0.55061777  0.43896333     0.18400
H1633       H  0.04532682  0.64827983  0.46326575     0.18400
N1634       N  0.04737804  0.61316967  0.48793471    -0.88300
H1635       H  0.01066595  0.56531354  0.41101371     0.35800
H1636       H  0.03483246  0.60020871  0.40639781     0.40900
H1637       H  0.03354760  0.61958299  0.49382286     0.40500
H1638       H  0.06854822  0.63098224  0.48816255     0.35400
C1639       C  0.27906662  0.80695217  0.42369779    -0.26300
C1640       C  0.30489746  0.83263585  0.41949803    -0.14400
C1641       C  0.30366725  0.85780762  0.41495123     0.36200
C1642       C  0.27672033  0.85685406  0.41447205    -0.25800
C1643       C  0.25062135  0.83103316  0.41840283    -0.15000
C1644       C  0.25208642  0.80593707  0.42335193     0.37300
N1645       N  0.22643155  0.77942556  0.42831029    -0.89300
H1646       H  0.27985008  0.78752644  0.42736417     0.18400
H1647       H  0.27629993  0.87638578  0.41061524     0.18400
N1648       N  0.32966347  0.88415023  0.41020689    -0.88300
H1649       H  0.22923363  0.77398869  0.44147721     0.35800
H1650       H  0.22448555  0.76296195  0.41967755     0.40900
H1651       H  0.33186587  0.90052072  0.41901751     0.40500
H1652       H  0.32710588  0.89001096  0.39710756     0.35400
C1653       C  0.37340240  0.77216645  0.40372176    -0.26300
C1654       C  0.36417082  0.79048608  0.39611949    -0.14400
C1655       C  0.35665732  0.78769347  0.37768722     0.36200
C1656       C  0.35746960  0.76605662  0.36732537    -0.25800
C1657       C  0.36588736  0.74698758  0.37494071    -0.15000
C1658       C  0.37450740  0.75051803  0.39335376     0.37300
N1659       N  0.38437789  0.73228851  0.40150511    -0.89300
H1660       H  0.37939689  0.77453020  0.41789285     0.18400
H1661       H  0.35113830  0.76408030  0.35323089     0.18400
N1662       N  0.34853542  0.80708169  0.36937075    -0.88300
H1663       H  0.38909268  0.73728415  0.41522028     0.35800
H1664       H  0.40400024  0.73717929  0.39532022     0.40900
H1665       H  0.32765003  0.79460659  0.36392866     0.40500
H1666       H  0.36292412  0.81777327  0.35871474     0.35400
C1667       C  0.44806760  0.92354774  0.44408122    -0.26300
C1668       C  0.45517928  0.91529189  0.46055020    -0.14400
C1669       C  0.43950449  0.88574124  0.46597793     0.36200
C1670       C  0.41626353  0.86548790  0.45522626    -0.25800
C1671       C  0.40856071  0.87417029  0.43920480    -0.15000
C1672       C  0.42492338  0.90338016  0.43346121     0.37300
N1673       N  0.41848379  0.91307168  0.41687808    -0.89300
H1674       H  0.46002686  0.94604322  0.43966412     0.18400
H1675       H  0.40389631  0.84290001  0.45941827     0.18400
N1676       N  0.44735411  0.87638529  0.48225700    -0.88300
H1677       H  0.39721627  0.90941093  0.41751981     0.35800
H1678       H  0.41963692  0.90061018  0.40632042     0.40900
H1679       H  0.46824775  0.87948873  0.48043216     0.40500
H1680       H  0.43355831  0.85401817  0.48431557     0.35400
C1681       C  0.37844903  0.57153503  0.59795370    -0.26300
C1682       C  0.36266070  0.55040568  0.58485568    -0.14400
C1683       C  0.34804944  0.55627461  0.57098870     0.36200
C1684       C  0.34970980  0.58356909  0.57042923    -0.25800
C1685       C  0.36641986  0.60517429  0.58315333    -0.15000
C1686       C  0.38065293  0.59890703  0.59717885     0.37300
N1687       N  0.39687808  0.61961255  0.61102022    -0.89300
H1688       H  0.38960183  0.56688044  0.60863874     0.18400
H1689       H  0.33850998  0.58827639  0.55980288     0.18400
N1690       N  0.33164754  0.53449072  0.55762227    -0.88300
H1691       H  0.38332652  0.62613447  0.61717072     0.35800
H1692       H  0.41443352  0.63776112  0.60507125     0.40900
H1693       H  0.34623182  0.53096534  0.55016824     0.40500
H1694       H  0.32181162  0.54218276  0.54846718     0.35400
C1695       C  0.29582996  0.93327150  0.63486283    -0.26300
C1696       C  0.27941744  0.90518622  0.62780474    -0.14400
C1697       C  0.28552294  0.89916382  0.61030076     0.36200
C1698       C  0.30731980  0.92191256  0.59989713    -0.25800
C1699       C  0.32349426  0.95028629  0.60687833    -0.15000
C1700       C  0.31816565  0.95559360  0.62478662     0.37300
N1701       N  0.33584049  0.98351720  0.63297267    -0.89300
H1702       H  0.29162943  0.93780082  0.64846196     0.18400
H1703       H  0.31124449  0.91763386  0.58618614     0.18400
N1704       N  0.26880384  0.87036907  0.60290829    -0.88300
H1705       H  0.32221267  0.99145298  0.63704459     0.35800
H1706       H  0.34556136  0.98065719  0.64453063     0.40900
H1707       H  0.27365601  0.85659477  0.61043209     0.40500
H1708       H  0.27530702  0.86986732  0.58964262     0.35400
C1709       C  0.42484421  0.98277212  0.56956186    -0.26300
C1710       C  0.40693425  0.99272421  0.56217736    -0.14400
C1711       C  0.41079160  0.00188462  0.54392386     0.36200
C1712       C  0.43318538  0.00200815  0.53372532    -0.25800
C1713       C  0.45140614  0.99256874  0.54120290    -0.15000
C1714       C  0.44717658  0.98275683  0.55938750     0.37300
N1715       N  0.46548682  0.97349180  0.56816420    -0.89300
H1716       H  0.42215420  0.97592697  0.58358367     0.18400
H1717       H  0.43633027  0.00929820  0.51978222     0.18400
N1718       N  0.39184754  0.01091018  0.53580693    -0.88300
H1719       H  0.47611429  0.98784077  0.57887277     0.35800
H1720       H  0.48181032  0.97502681  0.55965946     0.40900
H1721       H  0.37083154  0.99288356  0.53565556     0.40500
H1722       H  0.39761360  0.01703036  0.52232092     0.35400
C1723       C  0.47603737  0.74121587  0.57562322    -0.26300
C1724       C  0.47635389  0.76665423  0.58112325    -0.14400
C1725       C  0.45021666  0.76501093  0.58671180     0.36200
C1726       C  0.42419378  0.73817516  0.58645595    -0.25800
C1727       C  0.42357869  0.71251867  0.58082650    -0.15000
C1728       C  0.45016617  0.71432086  0.57536445     0.37300
N1729       N  0.45174622  0.68964760  0.56898464    -0.89300
H1730       H  0.49608325  0.74233614  0.57124355     0.18400
H1731       H  0.40438726  0.73747471  0.59090929     0.18400
N1732       N  0.45013616  0.79048584  0.59304989    -0.88300
H1733       H  0.43716823  0.68019374  0.55823667     0.35800
H1734       H  0.44627832  0.67461778  0.57950687     0.40900
H1735       H  0.44214207  0.78651863  0.60627451     0.40500
H1736       H  0.43574067  0.79370636  0.58497897     0.35400
C1737       C  0.10832335  0.80801704  0.61281481    -0.26300
C1738       C  0.12148227  0.82976028  0.62602989    -0.14400
C1739       C  0.11301814  0.85108417  0.62742122     0.36200
C1740       C  0.09129602  0.84992499  0.61590063    -0.25800
C1741       C  0.07769384  0.82775416  0.60296789    -0.15000
C1742       C  0.08684398  0.80702292  0.60121421     0.37300
N1743       N  0.07468080  0.78515229  0.58746142    -0.89300
H1744       H  0.11491461  0.79177290  0.61134694     0.18400
H1745       H  0.08437489  0.86589666  0.61748632     0.18400
N1746       N  0.12555944  0.87328013  0.64095717    -0.88300
H1747       H  0.06541849  0.76477004  0.59373687     0.35800
H1748       H  0.09167680  0.78735283  0.57922373     0.40900
H1749       H  0.10874824  0.87154146  0.64920069     0.40500
H1750       H  0.13499090  0.89350011  0.63447795     0.35400
C1751       C  0.01207831  0.90352654  0.55527991    -0.26300
C1752       C  0.03465739  0.91882382  0.54283295    -0.14400
C1753       C  0.05678449  0.91149514  0.54118314     0.36200
C1754       C  0.05576401  0.88895804  0.55177487    -0.25800
C1755       C  0.03285206  0.87329657  0.56392979    -0.15000
C1756       C  0.01110000  0.88105818  0.56587362     0.37300
N1757       N  0.98813647  0.86637677  0.57875942    -0.89300
H1758       H  0.99511256  0.90910334  0.55688599     0.18400
H1759       H  0.07243909  0.88301348  0.55002137     0.18400
N1760       N  0.07968560  0.92602477  0.52824916    -0.88300
H1761       H  0.96828416  0.85723740  0.57182633     0.35800
H1762       H  0.98881513  0.88187475  0.58775719     0.40900
H1763       H  0.07897504  0.91041009  0.51932822     0.40500
H1764       H  0.09955480  0.93526844  0.53515200     0.35400
C1765       C  0.26287367  0.63804423  0.58194648    -0.26300
C1766       C  0.26401241  0.66504282  0.58100364    -0.14400
C1767       C  0.29133225  0.69059157  0.57903861     0.36200
C1768       C  0.31683309  0.68854036  0.57861983    -0.25800
C1769       C  0.31573632  0.66146204  0.57979201    -0.15000
C1770       C  0.28814102  0.63592206  0.58124748     0.37300
N1771       N  0.28536074  0.60762618  0.58222828    -0.89300
H1772       H  0.24209690  0.61823871  0.58354726     0.18400
H1773       H  0.33767412  0.70831959  0.57731525     0.18400
N1774       N  0.29309413  0.71844783  0.57723351    -0.88300
H1775       H  0.27221918  0.59516159  0.57149000     0.35800
H1776       H  0.27478716  0.59774398  0.59430328     0.40900
H1777       H  0.28266480  0.71824720  0.56522332     0.40500
H1778       H  0.31484612  0.73509645  0.57598717     0.35400
C1779       C  0.21740194  0.71173592  0.62493572    -0.26300
C1780       C  0.20368372  0.70488090  0.60791478    -0.14400
C1781       C  0.18806560  0.71880718  0.60230394     0.36200
C1782       C  0.18599990  0.73860453  0.61394326    -0.25800
C1783       C  0.20026384  0.74586082  0.63069215    -0.15000
C1784       C  0.21607820  0.73227567  0.63630588     0.37300
N1785       N  0.23048757  0.73920555  0.65357830    -0.89300
H1786       H  0.22910685  0.70093164  0.62942617     0.18400
H1787       H  0.17421982  0.74941982  0.60959642     0.18400
N1788       N  0.17519073  0.71359809  0.58458528    -0.88300
H1789       H  0.24128210  0.72742016  0.65563367     0.35800
H1790       H  0.21444289  0.73238149  0.66353946     0.40900
H1791       H  0.19209164  0.72133041  0.57515254     0.40500
H1792       H  0.16453793  0.72552533  0.58260426     0.35400
C1793       C  0.12917401  0.57001460  0.55473744    -0.26300
C1794       C  0.11169491  0.57782228  0.54450211    -0.14400
C1795       C  0.11720723  0.60682307  0.54526644     0.36200
C1796       C  0.14052584  0.62737256  0.55582322    -0.25800
C1797       C  0.15853500  0.61966393  0.56549894    -0.15000
C1798       C  0.15229350  0.59047886  0.56533007     0.37300
N1799       N  0.16938107  0.58170478  0.57599143    -0.89300
H1800       H  0.12474999  0.54772369  0.55453333     0.18400
H1801       H  0.14532277  0.64978897  0.55600628     0.18400
N1802       N  0.09976609  0.61558345  0.53498564    -0.88300
H1803       H  0.16203852  0.55950926  0.57429585     0.35800
H1804       H  0.16617685  0.58461606  0.58958258     0.40900
H1805       H  0.10367514  0.61410722  0.52130629     0.40500
H1806       H  0.10633139  0.63745803  0.53741656     0.35400
C1807       C  0.05281826  0.59951727  0.75614470    -0.26300
C1808       C  0.02867734  0.59970740  0.74848722    -0.14400
C1809       C  0.00631534  0.57405876  0.74056581     0.36200
C1810       C  0.00830347  0.54868583  0.74074007    -0.25800
C1811       C  0.03232826  0.54826493  0.74862426    -0.15000
C1812       C  0.05479639  0.57408406  0.75637096     0.37300
N1813       N  0.07922017  0.57444867  0.76499976    -0.89300
H1814       H  0.07005676  0.61917489  0.76225812     0.18400
H1815       H  0.49413416  0.53162799  0.73971229     0.18400
N1816       N  0.48631764  0.57660639  0.73820569    -0.88300
H1817       H  0.07985289  0.58071318  0.77845864     0.35800
H1818       H  0.09816656  0.59024102  0.75863051     0.40900
H1819       H  0.49328148  0.59263203  0.72817109     0.40500
H1820       H  0.47589987  0.58163729  0.74834631     0.35400
C1821       C  0.06906208  0.70060761  0.71028906    -0.26300
C1822       C  0.07046733  0.70277640  0.72917470    -0.14400
C1823       C  0.09350911  0.72756338  0.73727377     0.36200
C1824       C  0.11501449  0.74957608  0.72640962    -0.25800
C1825       C  0.11409583  0.74732655  0.70739870    -0.15000
C1826       C  0.09038670  0.72256076  0.69935938     0.37300
N1827       N  0.08787477  0.71924373  0.68011882    -0.89300
H1828       H  0.05137395  0.68152103  0.70396075     0.18400
H1829       H  0.13279745  0.76824848  0.73298116     0.18400
N1830       N  0.09571975  0.72992104  0.75656049    -0.88300
H1831       H  0.06796967  0.71723808  0.67620296     0.35800
H1832       H  0.08751932  0.69990434  0.67678717     0.40900
H1833       H  0.09591838  0.74903634  0.76027154     0.40500
H1834       H  0.11564094  0.73188802  0.76040330     0.35400
C1835       C  0.45367122  0.67304324  0.78061702    -0.26300
C1836       C  0.44676545  0.65942726  0.79758057    -0.14400
C1837       C  0.46221250  0.64602884  0.80410525     0.36200
C1838       C  0.48485407  0.64713212  0.79364636    -0.25800
C1839       C  0.49169349  0.66040140  0.77644394    -0.15000
C1840       C  0.47538368  0.67296992  0.76974307     0.37300
N1841       N  0.48012948  0.68467555  0.75172273    -0.89300
H1842       H  0.44133398  0.68289165  0.77558494     0.18400
H1843       H  0.99397506  0.63509231  0.79571643     0.18400
N1844       N  0.45495725  0.63154858  0.82136414    -0.88300
H1845       H  0.46629526  0.69294437  0.74889913     0.35800
H1846       H  0.47447634  0.66744211  0.74273574     0.40900
H1847       H  0.45949103  0.64724838  0.83127893     0.40500
H1848       H  0.46821505  0.62254672  0.82414342     0.35400
C1849       C  0.11346925  0.96883441  0.76144216    -0.26300
C1850       C  0.13859541  0.99289636  0.75461268    -0.14400
C1851       C  0.13809554  0.51846263  0.74304620     0.36200
C1852       C  0.11137528  0.51786105  0.74321826    -0.25800
C1853       C  0.08489363  0.99214730  0.75446769    -0.15000
C1854       C  0.08674238  0.96830918  0.76157706     0.37300
N1855       N  0.06180973  0.94380438  0.76934882    -0.89300
H1856       H  0.11467367  0.95042608  0.76686292     0.18400
H1857       H  0.10997349  0.53555809  0.73682687     0.18400
N1858       N  0.16230327  0.54225499  0.73417393    -0.88300
H1859       H  0.06666739  0.94176593  0.78280100     0.35800
H1860       H  0.05819824  0.92512499  0.76241956     0.40900
H1861       H  0.16982258  0.53384013  0.72410163     0.40500
H1862       H  0.17896291  0.55324898  0.74359698     0.35400
C1863       C  0.25157655  0.56706962  0.76846056    -0.26300
C1864       C  0.24437620  0.53786111  0.77015039    -0.14400
C1865       C  0.26101676  0.53062644  0.78180540     0.36200
C1866       C  0.28347647  0.55262203  0.79221843    -0.25800
C1867       C  0.28961774  0.58165956  0.79124669    -0.15000
C1868       C  0.27421297  0.58907596  0.77863438     0.37300
N1869       N  0.28167955  0.61892895  0.77608131    -0.89300
H1870       H  0.23941744  0.57273710  0.75907936     0.18400
H1871       H  0.29551509  0.54684516  0.80161629     0.18400
N1872       N  0.25453354  0.50093711  0.78343870    -0.88300
H1873       H  0.26811817  0.62057042  0.76641610     0.35800
H1874       H  0.30278751  0.63007910  0.77081397     0.40900
H1875       H  0.23375154  0.48889804  0.78902389     0.40500
H1876       H  0.26895587  0.49936111  0.79245793     0.35400
C1877       C  0.20912134  0.93386892  0.73761275    -0.26300
C1878       C  0.19757644  0.95067933  0.73067061    -0.14400
C1879       C  0.18858566  0.94715476  0.71244420     0.36200
C1880       C  0.19013074  0.92617430  0.70174986    -0.25800
C1881       C  0.20058383  0.90849010  0.70887425    -0.15000
C1882       C  0.21078971  0.91294142  0.72689733     0.37300
N1883       N  0.22327782  0.89661512  0.73432125    -0.89300
H1884       H  0.21649161  0.93667009  0.75152854     0.18400
H1885       H  0.18260838  0.92341541  0.68787104     0.18400
N1886       N  0.17826562  0.96514485  0.70465460    -0.88300
H1887       H  0.21129214  0.88555168  0.74576452     0.35800
H1888       H  0.24454687  0.91131166  0.73845650     0.40900
H1889       H  0.15717365  0.95158154  0.69977266     0.40500
H1890       H  0.19157989  0.97628421  0.69366262     0.35400
C1891       C  0.44895590  0.88990629  0.74416677    -0.26300
C1892       C  0.42425255  0.88943179  0.75125889    -0.14400
C1893       C  0.42624731  0.91546806  0.75756344     0.36200
C1894       C  0.45297346  0.94131627  0.75689761    -0.25800
C1895       C  0.47799416  0.94188121  0.75005030    -0.15000
C1896       C  0.47570883  0.91587501  0.74335178     0.37300
N1897       N  0.99987866  0.91109221  0.74458289    -0.89300
H1898       H  0.44739864  0.86999299  0.73910977     0.18400
H1899       H  0.45421997  0.96098508  0.76213185     0.18400
N1900       N  0.40181031  0.91611675  0.76530320    -0.88300
H1901       H  0.99581172  0.90181248  0.73170197     0.35800
H1902       H  0.00218732  0.89702666  0.75351971     0.40900
H1903       H  0.39372290  0.90115049  0.77595192     0.40500
H1904       H  0.38556628  0.90991000  0.75549110     0.35400
C1905       C  0.39219798  0.78277134  0.77375818    -0.26300
C1906       C  0.36837805  0.78756186  0.77435692    -0.14400
C1907       C  0.34452525  0.76982281  0.78563425     0.36200
C1908       C  0.34456983  0.74711713  0.79548024    -0.25800
C1909       C  0.36837032  0.74233292  0.79486968    -0.15000
C1910       C  0.39259840  0.76056644  0.78396058     0.37300
N1911       N  0.41735041  0.75631564  0.78304992    -0.89300
H1912       H  0.41051590  0.79623536  0.76507821     0.18400
H1913       H  0.32618543  0.73354832  0.80409167     0.18400
N1914       N  0.32071432  0.77537781  0.78744788    -0.88300
H1915       H  0.43352268  0.77199014  0.77472918     0.35800
H1916       H  0.41049893  0.73614668  0.77694248     0.40900
H1917       H  0.32889223  0.79586673  0.79339576     0.40500
H1918       H  0.30495424  0.76036788  0.79627105     0.35400
C1919       C  0.30084092  0.82640777  0.70202537    -0.26300
C1920       C  0.27790155  0.82797826  0.71049178    -0.14400
C1921       C  0.27761223  0.82930710  0.72962277     0.36200
C1922       C  0.29959884  0.82806224  0.73965019    -0.25800
C1923       C  0.32238095  0.82664329  0.73104538    -0.15000
C1924       C  0.32302996  0.82581976  0.71196932     0.37300
N1925       N  0.34592237  0.82473476  0.70218842    -0.89300
H1926       H  0.30171829  0.82561483  0.68742004     0.18400
H1927       H  0.29972424  0.82951019  0.75426663     0.18400
N1928       N  0.25564001  0.83271177  0.73883687    -0.88300
H1929       H  0.33638912  0.80551055  0.69464544     0.35800
H1930       H  0.36082301  0.82340941  0.71082824     0.40900
H1931       H  0.25888101  0.85333265  0.73552821     0.40500
H1932       H  0.25830016  0.83265513  0.75284432     0.35400
C1933       C  0.45769472  0.76652037  0.90601328    -0.26300
C1934       C  0.48400870  0.78738811  0.89821365    -0.14400
C1935       C  0.48816707  0.78652031  0.87946703     0.36200
C1936       C  0.46648278  0.76398579  0.86902965    -0.25800
C1937       C  0.44042200  0.74224079  0.87684844    -0.15000
C1938       C  0.43593671  0.74399491  0.89556925     0.37300
N1939       N  0.40951742  0.72293138  0.90415054    -0.89300
H1940       H  0.45435340  0.76719801  0.92040953     0.18400
H1941       H  0.47019817  0.76336888  0.85469248     0.18400
N1942       N  0.02023567  0.79723045  0.87307117    -0.88300
H1943       H  0.39982205  0.73394123  0.91000601     0.35800
H1944       H  0.41487571  0.71294788  0.91451011     0.40900
H1945       H  0.02484560  0.81871831  0.87136549     0.40500
H1946       H  0.02096915  0.78943756  0.86023828     0.35400
C1947       C  0.01450948  0.86858620  0.95462390    -0.26300
C1948       C  0.02864251  0.87629501  0.93789097    -0.14400
C1949       C  0.04263115  0.90570856  0.93216421     0.36200
C1950       C  0.04208613  0.92664059  0.94344760    -0.25800
C1951       C  0.02851301  0.91905209  0.96046351    -0.15000
C1952       C  0.01432560  0.88960363  0.96601904     0.37300
N1953       N  0.49900468  0.87820245  0.98719115    -0.89300
H1954       H  0.50407897  0.84272743  0.96349663     0.18400
H1955       H  0.05297684  0.94915497  0.93903115     0.18400
N1956       N  0.05742843  0.91510953  0.91509663    -0.88300
H1957       H  0.49144623  0.85618259  0.98987176     0.35800
H1958       H  0.48069092  0.88079353  0.98696365     0.40900
H1959       H  0.05562511  0.89769068  0.90753165     0.40500
H1960       H  0.07957531  0.92879467  0.91778886     0.35400
C1961       C  0.13934130  0.85308580  0.91624619    -0.26300
C1962       C  0.13900595  0.82702331  0.92048899    -0.14400
C1963       C  0.11226751  0.80222803  0.92519759     0.36200
C1964       C  0.08673863  0.80399780  0.92554211    -0.25800
C1965       C  0.08716405  0.82998424  0.92112762    -0.15000
C1966       C  0.11374352  0.85467728  0.91634725     0.37300
N1967       N  0.11470015  0.88112756  0.91092158    -0.89300
H1968       H  0.15948726  0.87230116  0.91237941     0.18400
H1969       H  0.06641385  0.78487931  0.92928697     0.18400
N1970       N  0.11081780  0.77527509  0.92985903    -0.88300
H1971       H  0.12303650  0.88618669  0.89779589     0.35800
H1972       H  0.12914682  0.89777536  0.91949438     0.40900
H1973       H  0.09624280  0.75925917  0.92098990     0.40500
H1974       H  0.10238863  0.76953049  0.94293143     0.35400
C1975       C  0.21670935  0.77144035  0.92182693    -0.26300
C1976       C  0.19236202  0.77288717  0.91557946    -0.14400
C1977       C  0.16852754  0.74758130  0.90820538     0.36200
C1978       C  0.16934758  0.72153703  0.90749733    -0.25800
C1979       C  0.19365942  0.72027255  0.91379487    -0.15000
C1980       C  0.21754454  0.74551141  0.92106630     0.37300
N1981       N  0.24247691  0.74518014  0.92835292    -0.89300
H1982       H  0.23509311  0.79046034  0.92769829     0.18400
H1983       H  0.15093317  0.70219844  0.90192068     0.18400
N1984       N  0.14367213  0.74823943  0.90109984    -0.88300
H1985       H  0.25244882  0.73987504  0.91805699     0.35800
H1986       H  0.23545943  0.72911053  0.93835949     0.40900
H1987       H  0.12524286  0.73273688  0.90804678     0.40500
H1988       H  0.14129907  0.74210807  0.88750429     0.35400
C1989       C  0.23783584  0.66650271  0.87328105    -0.26300
C1990       C  0.23495157  0.65950106  0.89174158    -0.14400
C1991       C  0.25432699  0.65184035  0.89989728     0.36200
C1992       C  0.27605001  0.65119543  0.88937945    -0.25800
C1993       C  0.27920055  0.65846383  0.87089980    -0.15000
C1994       C  0.25970431  0.66613678  0.86282978     0.37300
N1995       N  0.26241423  0.67437446  0.84416496    -0.89300
H1996       H  0.22317787  0.67263122  0.86695540     0.18400
H1997       H  0.29085933  0.64534192  0.89576102     0.18400
N1998       N  0.25242508  0.64555316  0.91893065    -0.88300
H1999       H  0.26565629  0.69550529  0.84340934     0.35800
H2000       H  0.24275946  0.66039375  0.83768099     0.40900
H2001       H  0.25720415  0.66464014  0.92586274     0.40500
H2002       H  0.26818113  0.64024866  0.92280143     0.35400
C2003       C  0.13160046  0.60201420  0.96653101    -0.26300
C2004       C  0.11074171  0.57511269  0.95918774    -0.14400
C2005       C  0.11243466  0.56973633  0.94058944     0.36200
C2006       C  0.13367884  0.59195272  0.92968776    -0.25800
C2007       C  0.15350311  0.61915200  0.93698701    -0.15000
C2008       C  0.15293417  0.62386947  0.95564591     0.37300
N2009       N  0.17421311  0.65081504  0.96361137    -0.89300
H2010       H  0.13117508  0.60640858  0.98078734     0.18400
H2011       H  0.13446806  0.58823986  0.91535668     0.18400
N2012       N  0.09275920  0.54184788  0.93280765    -0.88300
H2013       H  0.18539282  0.64616304  0.97356146     0.35800
H2014       H  0.16326669  0.66018816  0.96993198     0.40900
H2015       H  0.09726396  0.52657617  0.93874097     0.40500
H2016       H  0.09667343  0.54176126  0.91897020     0.35400
C2017       C  0.27125526  0.88135297  0.91299457    -0.26300
C2018       C  0.24622000  0.88006696  0.92038888    -0.14400
C2019       C  0.24840366  0.90568153  0.92779235     0.36200
C2020       C  0.27512700  0.93182261  0.92738601    -0.25800
C2021       C  0.29997967  0.93295181  0.91999744    -0.15000
C2022       C  0.29793404  0.90738809  0.91269299     0.37300
N2023       N  0.32230884  0.90742997  0.90432576    -0.89300
H2024       H  0.27006769  0.86210020  0.90708931     0.18400
H2025       H  0.27657155  0.95131710  0.93310128     0.18400
N2026       N  0.22379959  0.90525167  0.93609769    -0.88300
H2027       H  0.33871021  0.91305673  0.91395608     0.35800
H2028       H  0.33016027  0.92312259  0.89407470     0.40900
H2029       H  0.21977992  0.92027625  0.92936580     0.40500
H2030       H  0.22924782  0.91209889  0.94950013     0.35400
C2031       C  0.34399037  0.57083923  0.89175450    -0.26300
C2032       C  0.36510080  0.58359767  0.87817676    -0.14400
C2033       C  0.38665432  0.57544558  0.87644318     0.36200
C2034       C  0.38580967  0.55377766  0.88767227    -0.25800
C2035       C  0.36374048  0.53984925  0.90056943    -0.15000
C2036       C  0.34307742  0.54897812  0.90300386     0.37300
N2037       N  0.32126611  0.53593542  0.91684120    -0.89300
H2038       H  0.32780489  0.57749341  0.89330167     0.18400
H2039       H  0.40201035  0.54717476  0.88596413     0.18400
N2040       N  0.40996021  0.58919562  0.86367488    -0.88300
H2041       H  0.30772605  0.54502680  0.91682276     0.35800
H2042       H  0.33200791  0.54108498  0.92933400     0.40900
H2043       H  0.42086787  0.61166520  0.86596836     0.40500
H2044       H  0.40127625  0.58513268  0.85062728     0.35400
C2045       C  0.40334870  0.49295706  0.96072516    -0.26300
C2046       C  0.40234161  0.99379341  0.94177308    -0.14400
C2047       C  0.43023922  0.00362937  0.93446625     0.36200
C2048       C  0.45264866  0.00538101  0.94552481    -0.25800
C2049       C  0.44787909  0.99771873  0.96392652    -0.15000
C2050       C  0.42550534  0.49474968  0.97197724     0.37300
N2051       N  0.42026603  0.49012743  0.99101314    -0.89300
H2052       H  0.38270805  0.48814903  0.96662152     0.18400
H2053       H  0.47390433  0.01277053  0.93962581     0.18400
N2054       N  0.43572064  0.01115980  0.91571490    -0.88300
H2055       H  0.40213724  0.46948240  0.99297329     0.35800
H2056       H  0.41517000  0.50556981  0.99587714     0.40900
H2057       H  0.44289911  0.99796353  0.90981696     0.40500
H2058       H  0.45258674  0.03277944  0.91481616     0.35400
C2059       C  0.28250234  0.56376977  0.07863286    -0.26300
C2060       C  0.25789505  0.56399259  0.08532753    -0.14400
C2061       C  0.26056240  0.59053012  0.09125687     0.36200
C2062       C  0.28759990  0.61614799  0.09024978    -0.25800
C2063       C  0.31236610  0.61606613  0.08345636    -0.15000
C2064       C  0.30955233  0.58945049  0.07752301     0.37300
N2065       N  0.33382994  0.58836892  0.06993207    -0.89300
H2066       H  0.28059930  0.54351061  0.07397332     0.18400
H2067       H  0.28924907  0.63621745  0.09504970     0.18400
N2068       N  0.23649568  0.59198103  0.09889545    -0.88300
H2069       H  0.32824335  0.58008791  0.05681288     0.35800
H2070       H  0.33740752  0.57383816  0.07761132     0.40900
H2071       H  0.22833451  0.57743127  0.10974575     0.40500
H2072       H  0.22015621  0.58564908  0.08913162     0.35400
C2073       C  0.20874909  0.91752123  0.10937313    -0.26300
C2074       C  0.19323323  0.91016067  0.12571797    -0.14400
C2075       C  0.17841763  0.92503202  0.13081735     0.36200
C2076       C  0.18088929  0.94800064  0.12001625    -0.25800
C2077       C  0.19754638  0.95619417  0.10417857    -0.15000
C2078       C  0.21110446  0.94034668  0.09852728     0.37300
N2079       N  0.22706518  0.94648760  0.08187067    -0.89300
H2080       H  0.21975709  0.90591385  0.10517490     0.18400
H2081       H  0.17007201  0.95986949  0.12406825     0.18400
N2082       N  0.16083503  0.91669662  0.14687845    -0.88300
H2083       H  0.24888685  0.95404566  0.08513935     0.35800
H2084       H  0.22636056  0.96291288  0.07444892     0.40900
H2085       H  0.14354301  0.89553611  0.14491799     0.40500
H2086       H  0.15158143  0.92992415  0.14872452     0.35400
C2087       C  0.10475870  0.48481033  0.05742075    -0.26300
C2088       C  0.11234961  0.99848979  0.03967884    -0.14400
C2089       C  0.14158038  0.01255060  0.03367590     0.36200
C2090       C  0.16305955  0.01357623  0.04516573    -0.25800
C2091       C  0.15627528  0.00101060  0.06248857    -0.15000
C2092       C  0.12694297  0.48731408  0.06907292     0.37300
N2093       N  0.12020603  0.47710732  0.08741605    -0.89300
H2094       H  0.08258776  0.47505610  0.06233570     0.18400
H2095       H  0.18533261  0.02409186  0.04036776     0.18400
N2096       N  0.15033496  0.02564603  0.01604715    -0.88300
H2097       H  0.09787090  0.46769169  0.08984870     0.35800
H2098       H  0.13062205  0.49523468  0.09588805     0.40900
H2099       H  0.13259336  0.02225689  0.00812836     0.40500
H2100       H  0.15976369  0.01509177  0.00930964     0.35400
C2101       C  0.38829409  0.77480514  0.08953545    -0.26300
C2102       C  0.36386377  0.77525361  0.08267807    -0.14400
C2103       C  0.34065027  0.74977776  0.07525616     0.36200
C2104       C  0.34200859  0.72395847  0.07530787    -0.25800
C2105       C  0.36633213  0.72325132  0.08240814    -0.15000
C2106       C  0.38970923  0.74909779  0.08955896     0.37300
N2107       N  0.41452642  0.74927045  0.09743079    -0.89300
H2108       H  0.40614722  0.79443215  0.09526905     0.18400
H2109       H  0.32409351  0.70438044  0.06960194     0.18400
N2110       N  0.31597281  0.75035479  0.06757278    -0.88300
H2111       H  0.41613452  0.75574089  0.11091202     0.35800
H2112       H  0.43310434  0.76494524  0.09066518     0.40900
H2113       H  0.32336744  0.76437883  0.05640074     0.40500
H2114       H  0.30078388  0.72983382  0.06265961     0.35400
C2115       C  0.32146943  0.83093932  0.12551612    -0.26300
C2116       C  0.31906089  0.83143066  0.10668511    -0.14400
C2117       C  0.29490401  0.83176911  0.09894734     0.36200
C2118       C  0.27375239  0.83187555  0.11013820    -0.25800
C2119       C  0.27603359  0.83163538  0.12910520    -0.15000
C2120       C  0.30031759  0.83112186  0.13680058     0.37300
N2121       N  0.30366416  0.83061952  0.15600264    -0.89300
H2122       H  0.33989405  0.83037263  0.13149738     0.18400
H2123       H  0.25535485  0.83208763  0.10385394     0.18400
N2124       N  0.29103470  0.83137839  0.07975661    -0.88300
H2125       H  0.32349583  0.84876219  0.15960613     0.35800
H2126       H  0.30466198  0.81192312  0.15933628     0.40900
H2127       H  0.29076683  0.81290313  0.07456314     0.40500
H2128       H  0.30880052  0.84982440  0.07423912     0.35400
C2129       C  0.43534524  0.88901715  0.07014263    -0.26300
C2130       C  0.40609132  0.87942368  0.06593738    -0.14400
C2131       C  0.39940717  0.89280971  0.05158200     0.36200
C2132       C  0.42202734  0.91517655  0.04169286    -0.25800
C2133       C  0.45125994  0.92395789  0.04548736    -0.15000
C2134       C  0.45792234  0.91103418  0.06001225     0.37300
N2135       N  0.48758503  0.92032518  0.06457733    -0.89300
H2136       H  0.44066555  0.87887448  0.08113098     0.18400
H2137       H  0.41668822  0.92486763  0.03045345     0.18400
N2138       N  0.37000270  0.88309634  0.04610693    -0.88300
H2139       H  0.49052146  0.90225778  0.06384752     0.35800
H2140       H  0.49108576  0.92757209  0.07797374     0.40900
H2141       H  0.35900212  0.88618398  0.05677874     0.40500
H2142       H  0.35986475  0.86084809  0.04319408     0.35400
C2143       C  0.47221012  0.69074800  0.07653441    -0.26300
C2144       C  0.47216865  0.66635876  0.08389482    -0.14400
C2145       C  0.44600387  0.64308262  0.09048118     0.36200
C2146       C  0.42030953  0.64457937  0.08967887    -0.25800
C2147       C  0.42013931  0.66911910  0.08244409    -0.15000
C2148       C  0.44668043  0.69239544  0.07562761     0.37300
N2149       N  0.44852218  0.71764781  0.06723390    -0.89300
H2150       H  0.49229803  0.70863085  0.07129338     0.18400
H2151       H  0.40047516  0.62652829  0.09503598     0.18400
N2152       N  0.44561959  0.61818712  0.09840228    -0.88300
H2153       H  0.44427510  0.72935669  0.07687581     0.35800
H2154       H  0.43315770  0.71104080  0.05681282     0.40900
H2155       H  0.43073380  0.59975639  0.09119401     0.40500
H2156       H  0.43808709  0.61604366  0.11167855     0.35400
C2157       C  0.06489052  0.71387241  0.12231541    -0.26300
C2158       C  0.07221697  0.71032020  0.10467895    -0.14400
C2159       C  0.10103816  0.72783277  0.09868153     0.36200
C2160       C  0.12206044  0.74836584  0.11041570    -0.25800
C2161       C  0.11493117  0.75186235  0.12820236    -0.15000
C2162       C  0.08573901  0.73422877  0.13410880     0.37300
N2163       N  0.07623457  0.73686842  0.15175037    -0.89300
H2164       H  0.04268984  0.70057054  0.12701234     0.18400
H2165       H  0.14411865  0.76168914  0.10550660     0.18400
N2166       N  0.10885209  0.72541230  0.08051614    -0.88300
H2167       H  0.08128293  0.75843463  0.15369152     0.35800
H2168       H  0.08699655  0.73123833  0.16141639     0.40900
H2169       H  0.12556314  0.72036557  0.08104471     0.40500
H2170       H  0.11703124  0.74573641  0.07426212     0.35400
C2171       C  0.05609803  0.63080531  0.05197608    -0.26300
C2172       C  0.03341975  0.62260901  0.06445859    -0.14400
C2173       C  0.01347754  0.59270937  0.06725106     0.36200
C2174       C  0.01526695  0.57195833  0.05661018    -0.25800
C2175       C  0.03677511  0.58017820  0.04328495    -0.15000
C2176       C  0.05797466  0.60989163  0.04127764     0.37300
N2177       N  0.08055963  0.61884789  0.02795362    -0.89300
H2178       H  0.07162679  0.65371188  0.05001974     0.18400
H2179       H  0.99945970  0.54914931  0.05866004     0.18400
N2180       N  0.99160169  0.58270357  0.08102630    -0.88300
H2181       H  0.59309560  0.63209018  0.03006462     0.35800
H2182       H  0.56580063  0.62993326  0.01701612     0.40900
H2183       H  0.97686698  0.58979003  0.07808832     0.40500
H2184       H  0.00171045  0.59158868  0.09338174     0.35400
C2185       C  0.54921107  0.19216776  0.09112043     0.03100
C2186       C  0.52267313  0.19177302  0.08929047    -0.13000
C2187       C  0.50050713  0.17103522  0.07832752     0.00600
C2188       C  0.50503462  0.15072762  0.06893039    -0.11600
C2189       C  0.53143562  0.15075452  0.07069068     0.03100
C2190       C  0.55360676  0.17166849  0.08167808    -0.11000
H2191       H  0.51901837  0.20727428  0.09671339     0.08700
H2192       H  0.98621047  0.13149581  0.06403830     0.06200
H2193       H  0.57378998  0.17136686  0.08333859     0.06100
C2194       C  0.88187191  0.35273414  0.07421758     0.03100
C2195       C  0.86148204  0.35557687  0.08480940    -0.13000
C2196       C  0.84057906  0.33178843  0.09484007     0.00600
C2197       C  0.84068006  0.30536351  0.09456832    -0.11600
C2198       C  0.86131168  0.30247265  0.08437323     0.03100
C2199       C  0.88184723  0.32621809  0.07422331    -0.11000
H2200       H  0.86249224  0.37645721  0.08569518     0.08700
H2201       H  0.82496596  0.28714599  0.10259364     0.06200
H2202       H  0.89785733  0.32406686  0.06630603     0.06100
C2203       C  0.68358108  0.50453351  0.07518476     0.03100
C2204       C  0.70713595  0.03241705  0.07720234    -0.13000
C2205       C  0.73054138  0.03606978  0.08802665     0.00600
C2206       C  0.72773910  0.01270518  0.09846325    -0.11600
C2207       C  0.70377994  0.48373184  0.09621349     0.03100
C2208       C  0.68082200  0.48077940  0.08527705    -0.11000
H2209       H  0.70949905  0.05050167  0.06905921     0.08700
H2210       H  0.74578906  0.01533393  0.10677545     0.06200
H2211       H  0.66107226  0.45981367  0.08439160     0.06100
C2212       C  0.84110471  0.14405139  0.08575517     0.80200
N2213       N  0.84087527  0.16953561  0.08654975    -0.78100
C2214       C  0.86603132  0.19550542  0.08597727     0.82600
N2215       N  0.89174362  0.19579930  0.08448834    -0.78100
C2216       C  0.89253745  0.17057803  0.08360204     0.82700
N2217       N  0.86705490  0.14477581  0.08434889    -0.79800
C2218       C  0.87709368  0.49024660  0.93066348     0.03100
C2219       C  0.88160698  0.01606851  0.92088561    -0.13000
C2220       C  0.85780098  0.01351085  0.91103138     0.00600
C2221       C  0.82922750  0.48439212  0.91092483    -0.11600
C2222       C  0.82695525  0.46046867  0.92053047     0.03100
C2223       C  0.85072138  0.46377245  0.93077594    -0.11000
H2224       H  0.90176657  0.03673990  0.92110249     0.08700
H2225       H  0.81083938  0.48209037  0.90311836     0.06200
H2226       H  0.84872412  0.44582606  0.93891084     0.06100
C2227       C  0.71545195  0.16393493  0.90534015     0.03100
C2228       C  0.69536325  0.14050964  0.91608482    -0.13000
C2229       C  0.67520554  0.14347913  0.92691149     0.00600
C2230       C  0.67474219  0.16970367  0.92652118    -0.11600
C2231       C  0.69464117  0.19308626  0.91598950     0.03100
C2232       C  0.71470560  0.19006127  0.90530140    -0.11000
H2233       H  0.69557377  0.12016809  0.91616388     0.08700
H2234       H  0.65896082  0.17205127  0.93455961     0.06200
H2235       H  0.72998184  0.20823349  0.89707653     0.06100
C2236       C  0.71729769  0.35199388  0.91873919     0.80200
N2237       N  0.71710437  0.32627648  0.91818506    -0.78100
C2238       C  0.69160633  0.30063469  0.91714260     0.82600
N2239       N  0.66613781  0.30094295  0.91675839    -0.78100
C2240       C  0.66593387  0.32644290  0.91733300     0.82700
N2241       N  0.69162602  0.35182117  0.91821396    -0.79800
C2242       C  0.50889372  0.31121773  0.90731758     0.03100
C2243       C  0.50651652  0.33188375  0.91793275    -0.13000
C2244       C  0.53058527  0.35232954  0.92801288     0.00600
C2245       C  0.55672144  0.35175226  0.92758941    -0.11600
C2246       C  0.55916980  0.33117712  0.91702753     0.03100
C2247       C  0.53519170  0.31098386  0.90692809    -0.11000
H2248       H  0.98615950  0.32942710  0.91916549     0.08700
H2249       H  0.57505214  0.36714217  0.93567412     0.06200
H2250       H  0.53695961  0.29498423  0.89875398     0.06100
Zn2251     Zn  0.53242331  0.46340275  0.01223277     1.49700
Zn2252     Zn  0.56683996  0.03352640  0.01049572     1.49400
Zn2253     Zn  0.53184311  0.49807611  0.97675505     1.49100
Zn2254     Zn  0.99722614  0.50098704  0.01117644     1.49500
O2255       O  0.53309491  0.49867263  0.00324854    -1.84200
O2256       O  0.56889027  0.47414115  0.02652274    -0.74800
O2257       O  0.59066503  0.05576729  0.98908341    -0.74600
O2258       O  0.53046918  0.46194072  0.96695413    -0.74100
O2259       O  0.59175199  0.02215548  0.02526413    -0.74800
O2260       O  0.53070814  0.43773989  0.99142982    -0.74400
O2261       O  0.56456222  0.03183438  0.96510503    -0.75000
O2262       O  0.97237802  0.50244942  0.99117857    -0.74400
O2263       O  0.55904377  0.06121935  0.02509716    -0.75100
O2264       O  0.99328317  0.49913379  0.96608671    -0.74500
O2265       O  0.51072411  0.03808556  0.02692033    -0.75000
O2266       O  0.97072781  0.46586205  0.02611339    -0.74900
O2267       O  0.99364028  0.44037459  0.02667853    -0.74700
C2268       C  0.59161149  0.49835116  0.03003145     0.77100
C2269       C  0.58739595  0.05289544  0.97202324     0.77600
C2270       C  0.53003740  0.43994120  0.97429132     0.76600
C2271       C  0.97277586  0.50060224  0.97405689     0.76900
C2272       C  0.53561114  0.05978824  0.03061506     0.78100
C2273       C  0.97246056  0.44388320  0.03132240     0.77100
C2274       C  0.84648371  0.33119922  0.74200917     0.03100
C2275       C  0.84486394  0.30775942  0.75184488    -0.13000
C2276       C  0.86885921  0.31129790  0.76210317     0.00600
C2277       C  0.89453262  0.33852293  0.76210186    -0.11600
C2278       C  0.89642011  0.36186693  0.75206226     0.03100
C2279       C  0.87234591  0.35807224  0.74199587    -0.11000
H2280       H  0.82511373  0.28677242  0.75123882     0.08700
H2281       H  0.91317435  0.34169340  0.76998804     0.06200
H2282       H  0.87387136  0.37577891  0.73380844     0.06100
C2283       C  0.69929239  0.47437531  0.74164703     0.03100
C2284       C  0.72327902  0.49430190  0.75191187    -0.13000
C2285       C  0.71743856  0.01688506  0.76183436     0.00600
C2286       C  0.69076279  0.01659300  0.76146898    -0.11600
C2287       C  0.67092627  0.49556736  0.75294852     0.03100
C2288       C  0.67316508  0.47502013  0.74228926    -0.11000
H2289       H  0.74366608  0.49422395  0.75112746     0.08700
H2290       H  0.68767472  0.03133785  0.77007644     0.06200
H2291       H  0.65456410  0.45957561  0.73441034     0.06100
C2292       C  0.50896669  0.15785292  0.76264818     0.03100
C2293       C  0.52898215  0.18142828  0.75202413    -0.13000
C2294       C  0.54799037  0.17830412  0.74024887     0.00600
C2295       C  0.54742234  0.15155057  0.73950127    -0.11600
C2296       C  0.52805123  0.12815978  0.75030925     0.03100
C2297       C  0.50880683  0.13130432  0.76171885    -0.11000
H2298       H  0.52977530  0.20221173  0.75285213     0.08700
H2299       H  0.56234921  0.14903790  0.73070666     0.06200
H2300       H  0.99735455  0.11431937  0.77209293     0.06100
C2301       C  0.50999471  0.47034808  0.75184968     0.80200
N2302       N  0.51081952  0.49638172  0.75162609    -0.78100
C2303       C  0.53160941  0.02097441  0.75162632     0.82600
N2304       N  0.55721064  0.02083964  0.75162651    -0.78100
C2305       C  0.56146822  0.49517136  0.75223719     0.82700
N2306       N  0.53545501  0.46993650  0.75220819    -0.79800
Zn2307     Zn  0.90092585  0.19687928  0.82720956     1.49700
Zn2308     Zn  0.86650411  0.12735596  0.82706624     1.49400
Zn2309     Zn  0.86350028  0.16184436  0.86212599     1.49100
Zn2310     Zn  0.83170014  0.16251192  0.82570594     1.49500
O2311       O  0.86572145  0.16205174  0.83556638    -1.84200
O2312       O  0.92691306  0.18688272  0.81261121    -0.74800
O2313       O  0.86572125  0.10298385  0.84825378    -0.74600
O2314       O  0.89812033  0.19762946  0.87274830    -0.74100
O2315       O  0.90343772  0.13845658  0.81292282    -0.74800
O2316       O  0.92366063  0.22118173  0.84851046    -0.74400
O2317       O  0.86297273  0.12623639  0.87244843    -0.75000
O2318       O  0.80556577  0.16289116  0.84526329    -0.74400
O2319       O  0.83139287  0.10227848  0.81110605    -0.75100
O2320       O  0.82702548  0.16143067  0.87067849    -0.74500
O2321       O  0.80792157  0.12720479  0.81054817    -0.75000
O2322       O  0.84315222  0.19757239  0.80998877    -0.74900
O2323       O  0.89138751  0.22180197  0.81119814    -0.74700
C2324       C  0.92506959  0.16281691  0.80822531     0.77100
C2325       C  0.86430291  0.10507165  0.86531453     0.77600
C2326       C  0.92020645  0.21925162  0.86560632     0.76600
C2327       C  0.80625319  0.16221027  0.86244302     0.76900
C2328       C  0.81013900  0.10534742  0.80577356     0.78100
C2329       C  0.86753898  0.21922805  0.80547186     0.77100
C2330       C  0.70317891  0.18385587  0.59521284     0.03100
C2331       C  0.67867257  0.16200502  0.58613668    -0.13000
C2332       C  0.68097244  0.14148746  0.57532187     0.00600
C2333       C  0.70828477  0.14342490  0.57342614    -0.11600
C2334       C  0.73282200  0.16487566  0.58258198     0.03100
C2335       C  0.73005675  0.18483538  0.59358816    -0.11000
H2336       H  0.65769120  0.16058773  0.58782105     0.08700
H2337       H  0.71056084  0.12822730  0.56476390     0.06200
H2338       H  0.74892196  0.20122817  0.60084155     0.06100
C2339       C  0.53208457  0.34790857  0.57117427     0.03100
C2340       C  0.50665918  0.32061568  0.56996959    -0.13000
C2341       C  0.00278775  0.29572666  0.58136970     0.00600
C2342       C  0.52882892  0.29893157  0.58827121    -0.11600
C2343       C  0.55476224  0.32585176  0.58931240     0.03100
C2344       C  0.55614768  0.35032899  0.58082492    -0.11000
H2345       H  0.98737911  0.31820291  0.56447333     0.08700
H2346       H  0.52696175  0.28022278  0.59546483     0.06200
H2347       H  0.57589732  0.37127666  0.58180452     0.06100
C2348       C  0.88381386  0.49527714  0.57598562     0.03100
C2349       C  0.88818326  0.02562932  0.57701456    -0.13000
C2350       C  0.86599755  0.02770881  0.58576041     0.00600
C2351       C  0.84176072  0.50101049  0.59560452    -0.11600
C2352       C  0.84282838  0.47509981  0.59688467     0.03100
C2353       C  0.86381191  0.47225622  0.58688462    -0.11000
H2354       H  0.90409684  0.04387035  0.56908513     0.08700
H2355       H  0.82715254  0.00562485  0.60159502     0.06200
H2356       H  0.86510917  0.45253918  0.58799413     0.06100
C2357       C  0.89284951  0.18762689  0.57959228     0.80200
N2358       N  0.86726973  0.18788654  0.57991487    -0.78100
C2359       C  0.84136630  0.16261686  0.58142341     0.82600
N2360       N  0.84140442  0.13705249  0.58262988    -0.78100
C2361       C  0.86675660  0.13658161  0.58267038     0.82700
N2362       N  0.89227651  0.16187321  0.58110003    -0.79800
Zn2363     Zn  0.66214512  0.29303108  0.65844460     1.49700
Zn2364     Zn  0.69501617  0.32516497  0.69510153     1.49400
Zn2365     Zn  0.73147155  0.32573713  0.66073969     1.49100
Zn2366     Zn  0.69833076  0.36229822  0.65993663     1.49500
O2367       O  0.69668640  0.32653709  0.66859794    -1.84200
O2368       O  0.63451484  0.26870629  0.67833077    -0.74800
O2369       O  0.72926220  0.32315613  0.70593771    -0.74600
O2370       O  0.72109430  0.28959884  0.64656657    -0.74100
O2371       O  0.65732033  0.29060770  0.70368188    -0.74800
O2372       O  0.67288131  0.26756690  0.64394800    -0.74400
O2373       O  0.75560624  0.32650041  0.68190750    -0.75000
O2374       O  0.73518456  0.38697751  0.64606420    -0.74400
O2375       O  0.69717274  0.36158552  0.70503378    -0.75100
O2376       O  0.75688078  0.36028499  0.64505363    -0.74500
O2377       O  0.69849627  0.38663042  0.68063585    -0.75000
O2378       O  0.66451534  0.35390363  0.64336385    -0.74900
O2379       O  0.64069370  0.30567250  0.64154616    -0.74700
C2380       C  0.63544971  0.27015477  0.69553447     0.77100
C2381       C  0.75206598  0.32492927  0.69896654     0.77600
C2382       C  0.69709698  0.26891602  0.64067718     0.76600
C2383       C  0.75585134  0.38306640  0.64088775     0.76900
C2384       C  0.69853719  0.38403670  0.69774400     0.78100
C2385       C  0.64374865  0.33026339  0.63706406     0.77100
C2386       C  0.86261808  0.31341654  0.40993074     0.03100
C2387       C  0.88642706  0.33437733  0.41989900    -0.13000
C2388       C  0.88337817  0.35428877  0.43077294     0.00600
C2389       C  0.85651220  0.35331726  0.43173234    -0.11600
C2390       C  0.83250510  0.33230185  0.42198433     0.03100
C2391       C  0.83555473  0.31211272  0.41137144    -0.11000
H2392       H  0.90738611  0.33550362  0.41900997     0.08700
H2393       H  0.85428487  0.36882722  0.44012499     0.06200
H2394       H  0.81695525  0.29573845  0.40391642     0.06100
C2395       C  0.53295884  0.14191341  0.42461818     0.03100
C2396       C  0.55932334  0.16850227  0.42433278    -0.13000
C2397       C  0.56193845  0.19224280  0.41441740     0.00600
C2398       C  0.53817428  0.18921261  0.40435005    -0.11600
C2399       C  0.51172099  0.16285431  0.40434054     0.03100
C2400       C  0.50911841  0.13911316  0.41447365    -0.11000
H2401       H  0.57774212  0.17092070  0.43216036     0.08700
H2402       H  0.54019341  0.20752463  0.39658517     0.06200
H2403       H  0.99003097  0.12321252  0.41902896     0.06100
C2404       C  0.72269625  0.01794595  0.40794295     0.03100
C2405       C  0.70317113  0.02107608  0.41917619    -0.13000
C2406       C  0.68245966  0.99734938  0.42931202     0.00600
C2407       C  0.67892527  0.46868485  0.42736417    -0.11600
C2408       C  0.69916935  0.46534959  0.41701670     0.03100
C2409       C  0.71960417  0.48887812  0.40659085    -0.11000
H2410       H  0.70401800  0.04191165  0.41996747     0.08700
H2411       H  0.66274638  0.45046243  0.43517897     0.06200
H2412       H  0.73473637  0.48623650  0.39808674     0.06100
C2413       C  0.67021265  0.30217592  0.41656864     0.80200
N2414       N  0.69604740  0.30284959  0.41843112    -0.78100
C2415       C  0.72137409  0.32849989  0.41978678     0.82600
N2416       N  0.72063457  0.35373047  0.41918585    -0.78100
C2417       C  0.69505022  0.35365425  0.41744142     0.82700
N2418       N  0.66986833  0.32769406  0.41624025    -0.79800
Zn2419     Zn  0.53336707  0.49924894  0.47413858     1.49700
Zn2420     Zn  0.53156259  0.03070357  0.50965901     1.49400
Zn2421     Zn  0.99841451  0.46277972  0.51264357     1.49100
Zn2422     Zn  0.56877531  0.49952099  0.50911025     1.49500
O2423       O  0.53359886  0.49910154  0.50061846    -1.84200
O2424       O  0.53190559  0.03129891  0.46427193    -0.74800
O2425       O  0.99936658  0.02333705  0.52768299    -0.74600
O2426       O  0.97423511  0.43782940  0.49206008    -0.74100
O2427       O  0.53146715  0.05528299  0.48865852    -0.74800
O2428       O  0.99752025  0.46231730  0.46745912    -0.74400
O2429       O  0.97272351  0.47200027  0.52785367    -0.75000
O2430       O  0.55899676  0.46415828  0.52438749    -0.74400
O2431       O  0.56587581  0.05599633  0.52595998    -0.75100
O2432       O  0.51071587  0.44002856  0.52535149    -0.74500
O2433       O  0.59083027  0.03256909  0.52678898    -0.75000
O2434       O  0.59348983  0.50016002  0.48821501    -0.74900
O2435       O  0.56893694  0.49987932  0.46388266    -0.74700
C2436       C  0.53140208  0.05283804  0.47151843     0.77100
C2437       C  0.97483349  0.49585113  0.53302948     0.77600
C2438       C  0.97635596  0.44023490  0.47493872     0.76600
C2439       C  0.53514833  0.44256162  0.52975342     0.76900
C2440       C  0.58744000  0.05376359  0.53162049     0.78100
C2441       C  0.59099547  0.50028653  0.47107846     0.77100
C2442       C  0.86365885  0.02241062  0.26270296     0.03100
C2443       C  0.89102753  0.02453738  0.26081728    -0.13000
C2444       C  0.89295344  0.50389114  0.24587091     0.00600
C2445       C  0.86782244  0.48212073  0.23753406    -0.11600
C2446       C  0.84111511  0.48134886  0.23943276     0.03100
C2447       C  0.83966726  0.50261658  0.24997045    -0.11000
H2448       H  0.90967341  0.04108639  0.26814802     0.08700
H2449       H  0.86910766  0.46571503  0.22950360     0.06200
H2450       H  0.81895156  0.50168685  0.25189686     0.06100
C2451       C  0.68984496  0.18215402  0.24248935     0.03100
C2452       C  0.71275483  0.18499985  0.25350922    -0.13000
C2453       C  0.71075108  0.16081885  0.26285443     0.00600
C2454       C  0.68520535  0.13352598  0.26076571    -0.11600
C2455       C  0.66194988  0.13058743  0.25002515     0.03100
C2456       C  0.66455539  0.15495868  0.24089585    -0.11000
H2457       H  0.73194275  0.20626862  0.25499452     0.08700
H2458       H  0.68314380  0.11454649  0.26761188     0.06200
H2459       H  0.64681540  0.15266307  0.23239670     0.06100
C2460       C  0.50585647  0.31615908  0.25981853     0.03100
C2461       C  0.50630634  0.34289958  0.25848353    -0.13000
C2462       C  0.52799921  0.36605673  0.24850459     0.00600
C2463       C  0.54854550  0.36209882  0.23906441    -0.11600
C2464       C  0.54811845  0.33547804  0.23982149     0.03100
C2465       C  0.52677489  0.31253823  0.25023247    -0.11000
H2466       H  0.98784012  0.34370807  0.26261844     0.08700
H2467       H  0.56471566  0.37970919  0.23085967     0.06200
H2468       H  0.52691834  0.29220005  0.25120406     0.06100
C2469       C  0.55018210  0.02362275  0.24720228     0.80200
N2470       N  0.52470289  0.02385661  0.24810504    -0.78100
C2471       C  0.50344131  0.50121039  0.24546186     0.82600
N2472       N  0.50378969  0.47581682  0.24493188    -0.78100
C2473       C  0.52919950  0.47555843  0.24386185     0.82700
N2474       N  0.55473650  0.50123113  0.24336636    -0.79800
Zn2475     Zn  0.72935985  0.33250998  0.17813539     1.49700
Zn2476     Zn  0.69324264  0.36593491  0.17711137     1.49400
Zn2477     Zn  0.69494303  0.33182265  0.14236196     1.49100
Zn2478     Zn  0.65983122  0.29656444  0.17766504     1.49500
O2479       O  0.69433213  0.33160221  0.16880886    -1.84200
O2480       O  0.75198544  0.36721773  0.19428783    -0.74800
O2481       O  0.69275698  0.39018197  0.15638266    -0.74600
O2482       O  0.73028508  0.33124114  0.13295965    -0.74100
O2483       O  0.72767046  0.39122197  0.19259090    -0.74800
O2484       O  0.75541251  0.33453577  0.15774074    -0.74400
O2485       O  0.69596152  0.36763652  0.13202628    -0.75000
O2486       O  0.63468729  0.27246856  0.15690870    -0.74400
O2487       O  0.65825634  0.35500884  0.19240245    -0.75100
O2488       O  0.65897470  0.29709453  0.13261444    -0.74500
O2489       O  0.63492263  0.30669185  0.19313961    -0.75000
O2490       O  0.67124050  0.27208292  0.19291020    -0.74900
O2491       O  0.71954242  0.29673121  0.19292522    -0.74700
C2492       C  0.74880940  0.38870919  0.19862700     0.77100
C2493       C  0.69434974  0.38851855  0.13931601     0.77600
C2494       C  0.75273172  0.33308177  0.14060461     0.76600
C2495       C  0.63692762  0.27551879  0.13981352     0.76900
C2496       C  0.63720632  0.33085589  0.19777368     0.78100
C2497       C  0.69559023  0.27482202  0.19778833     0.77100
Zn2498     Zn  0.86585955  0.20511226  0.32590396     1.49700
Zn2499     Zn  0.86675318  0.17030489  0.36157011     1.49400
Zn2500     Zn  0.82925197  0.13584577  0.32679910     1.49100
Zn2501     Zn  0.89888083  0.16785556  0.32588779     1.49500
O2502       O  0.86523514  0.16990559  0.33503409    -1.84200
O2503       O  0.86761597  0.23071475  0.34665468    -0.74800
O2504       O  0.83097790  0.13561904  0.37208993    -0.74600
O2505       O  0.80426458  0.14720255  0.31225707    -0.74100
O2506       O  0.86913323  0.20702509  0.37108922    -0.74800
O2507       O  0.82997685  0.19542501  0.31050695    -0.74400
O2508       O  0.80582466  0.11142664  0.34792199    -0.75000
O2509       O  0.88601774  0.13186895  0.31100248    -0.74400
O2510       O  0.90174549  0.16839603  0.37108017    -0.75100
O2511       O  0.83766231  0.11023094  0.31084583    -0.74500
O2512       O  0.92367462  0.16628325  0.34621425    -0.75000
O2513       O  0.92411217  0.20251813  0.31004701    -0.74900
O2514       O  0.90172555  0.22860869  0.31071259    -0.74700
C2515       C  0.86915393  0.22883891  0.36377196     0.77100
C2516       C  0.80901214  0.11377681  0.36502556     0.77600
C2517       C  0.80743997  0.17127288  0.30647901     0.76600
C2518       C  0.86122851  0.11135729  0.30602471     0.76900
C2519       C  0.92234602  0.16671244  0.36338227     0.78100
C2520       C  0.92248822  0.22484758  0.30543542     0.77100
C2521       C  0.55222523  0.44634695  0.25275856    -0.26300
C2522       C  0.52903784  0.44752159  0.24431909    -0.14400
C2523       C  0.50548472  0.42166277  0.23723413     0.36200
C2524       C  0.50556746  0.39529098  0.23895565    -0.25800
C2525       C  0.52871470  0.39424261  0.24741048    -0.15000
C2526       C  0.55220330  0.42005382  0.25448576     0.37300
N2527       N  0.57570610  0.42000883  0.26411219    -0.89300
H2528       H  0.57016698  0.46586855  0.25851545     0.18400
H2529       H  0.98103150  0.37186962  0.23383704     0.18400
N2530       N  0.97349204  0.41803216  0.23075477    -0.88300
H2531       H  0.58664976  0.41324029  0.25542529     0.35800
H2532       H  0.56699612  0.40514447  0.27479736     0.40900
H2533       H  0.95709031  0.39680662  0.22773449     0.40500
H2534       H  0.97877210  0.42965951  0.21861124     0.35400
C2535       C  0.95772180  0.27651159  0.29893827    -0.26300
C2536       C  0.94524841  0.24727994  0.29381525    -0.14400
C2537       C  0.95373909  0.24018093  0.27741961     0.36200
C2538       C  0.97333862  0.26272278  0.26599635    -0.25800
C2539       C  0.98556649  0.29215826  0.27097111    -0.15000
C2540       C  0.97828422  0.29886828  0.28795922     0.37300
N2541       N  0.99225928  0.32825262  0.29439774    -0.89300
H2542       H  0.95177295  0.28202789  0.31172635     0.18400
H2543       H  0.97877566  0.25725069  0.25303722     0.18400
N2544       N  0.94154687  0.21027090  0.27206447    -0.88300
H2545       H  0.97614918  0.33364741  0.29707944     0.35800
H2546       H  0.00275393  0.32915596  0.30657124     0.40900
H2547       H  0.94959180  0.20053141  0.28093356     0.40500
H2548       H  0.94892774  0.20891738  0.25921496     0.35400
C2549       C  0.58548047  0.30973615  0.20693746    -0.26300
C2550       C  0.61479053  0.33097341  0.20949801    -0.14400
C2551       C  0.62222311  0.35265091  0.22277230     0.36200
C2552       C  0.60005736  0.35313006  0.23281412    -0.25800
C2553       C  0.57067008  0.33242534  0.22989777    -0.15000
C2554       C  0.56325420  0.31048537  0.21683312     0.37300
N2555       N  0.53321664  0.28975556  0.21321888    -0.89300
H2556       H  0.57983366  0.29322226  0.19666464     0.18400
H2557       H  0.60567147  0.36988038  0.24292162     0.18400
N2558       N  0.65221322  0.37398091  0.22606095    -0.88300
H2559       H  0.53152029  0.27513689  0.20318327     0.35800
H2560       H  0.52348354  0.30122390  0.20799587     0.40900
H2561       H  0.66259838  0.36298272  0.23101715     0.40500
H2562       H  0.65388230  0.38848485  0.23617302     0.35400
C2563       C  0.60401269  0.05133472  0.24205078    -0.26300
C2564       C  0.57865765  0.05128999  0.24777444    -0.14400
C2565       C  0.58116493  0.07764759  0.25404753     0.36200
C2566       C  0.60857034  0.10291512  0.25477493    -0.25800
C2567       C  0.63382673  0.10279150  0.24928360    -0.15000
C2568       C  0.63134550  0.07670379  0.24256692     0.37300
N2569       N  0.65585622  0.07555896  0.23542201    -0.89300
H2570       H  0.60263045  0.03159012  0.23684848     0.18400
H2571       H  0.61014413  0.12287672  0.25975474     0.18400
N2572       N  0.55612887  0.07899041  0.25994745    -0.88300
H2573       H  0.67106758  0.08022160  0.24570532     0.35800
H2574       H  0.66537888  0.09137051  0.22530421     0.40900
H2575       H  0.55442511  0.09449083  0.25205065     0.40500
H2576       H  0.55951250  0.08611009  0.27335745     0.35400
C2577       C  0.71582218  0.22226885  0.22023346    -0.26300
C2578       C  0.69241436  0.20736817  0.23216465    -0.14400
C2579       C  0.67093766  0.21561948  0.23336768     0.36200
C2580       C  0.67263757  0.23772043  0.22201208    -0.25800
C2581       C  0.69569384  0.25227634  0.20972783    -0.15000
C2582       C  0.71779184  0.24460402  0.20909476     0.37300
N2583       N  0.74186955  0.25818796  0.19685912    -0.89300
H2584       H  0.73233732  0.21595530  0.21921752     0.18400
H2585       H  0.65593152  0.24378448  0.22287127     0.18400
N2586       N  0.64754424  0.20156508  0.24615237    -0.88300
H2587       H  0.75441459  0.28022987  0.20014602     0.35800
H2588       H  0.73382590  0.25617709  0.18370404     0.40900
H2589       H  0.63359346  0.21013591  0.24533254     0.40500
H2590       H  0.65672049  0.20640362  0.25911938     0.35400
C2591       C  0.76442611  0.18249335  0.26862152    -0.26300
C2592       C  0.73557298  0.16422039  0.27444338    -0.14400
C2593       C  0.73109999  0.14962938  0.29117039     0.36200
C2594       C  0.75500121  0.15256562  0.30114661    -0.25800
C2595       C  0.78374724  0.17053184  0.29525356    -0.15000
C2596       C  0.78850458  0.18584950  0.27867161     0.37300
N2597       N  0.81702401  0.20413861  0.27116378    -0.89300
H2598       H  0.76846339  0.19370494  0.25577067     0.18400
H2599       H  0.75099690  0.14090311  0.31384312     0.18400
N2600       N  0.70241806  0.13244707  0.29846227    -0.88300
H2601       H  0.81764810  0.19560465  0.25859066     0.35800
H2602       H  0.83335215  0.20369184  0.27884084     0.40900
H2603       H  0.70182417  0.14103153  0.31104416     0.40500
H2604       H  0.69863256  0.11128433  0.30050971     0.35400
C2605       C  0.92058702  0.47855672  0.25171552    -0.26300
C2606       C  0.92041382  0.50316621  0.24482611    -0.14400
C2607       C  0.94888430  0.03062990  0.24265827     0.36200
C2608       C  0.97463560  0.02922694  0.24244233    -0.25800
C2609       C  0.97228601  0.50036264  0.24522651    -0.15000
C2610       C  0.94621475  0.47691194  0.25212523     0.37300
N2611       N  0.94589095  0.45184643  0.25991884    -0.89300
H2612       H  0.90066586  0.46077367  0.25720651     0.18400
H2613       H  0.99438133  0.04800034  0.23760849     0.18400
N2614       N  0.95013557  0.05694317  0.23630041    -0.88300
H2615       H  0.92489679  0.43649724  0.26412346     0.35800
H2616       H  0.95883512  0.45873282  0.27155600     0.40900
H2617       H  0.92959969  0.05510402  0.23593791     0.40500
H2618       H  0.95725750  0.06012914  0.22289947     0.35400
C2619       C  0.77532401  0.44020270  0.20889859    -0.26300
C2620       C  0.77038578  0.41165553  0.21062759    -0.14400
C2621       C  0.78669122  0.40574689  0.22336291     0.36200
C2622       C  0.80883913  0.42880748  0.23316019    -0.25800
C2623       C  0.81496214  0.45758383  0.23061004    -0.15000
C2624       C  0.79763456  0.46331093  0.21864314     0.37300
N2625       N  0.80347474  0.49261429  0.21587590    -0.89300
H2626       H  0.76260815  0.44475299  0.19929346     0.18400
H2627       H  0.82181009  0.42441890  0.24266088     0.18400
N2628       N  0.78079998  0.37645187  0.22628896    -0.88300
H2629       H  0.78861126  0.49300606  0.20669085     0.35800
H2630       H  0.82610708  0.00628368  0.21272406     0.40900
H2631       H  0.75982585  0.36454865  0.23167817     0.40500
H2632       H  0.79498675  0.37599099  0.23597342     0.35400
C2633       C  0.84781737  0.05896735  0.26743471    -0.26300
C2634       C  0.86058532  0.04330882  0.27447675    -0.14400
C2635       C  0.87208676  0.04922368  0.29219466     0.36200
C2636       C  0.87198794  0.07170448  0.30207957    -0.25800
C2637       C  0.85995669  0.08786011  0.29486381    -0.15000
C2638       C  0.84752186  0.08135219  0.27732343     0.37300
N2639       N  0.83541309  0.09745459  0.26884515    -0.89300
H2640       H  0.83906658  0.05459500  0.25381496     0.18400
H2641       H  0.88117860  0.07656172  0.31558947     0.18400
N2642       N  0.88371797  0.03230712  0.30008608    -0.88300
H2643       H  0.84775689  0.10742574  0.25728890     0.35800
H2644       H  0.83725180  0.11427831  0.27701880     0.40900
H2645       H  0.86660340  0.01088780  0.30129861     0.40500
H2646       H  0.89139920  0.03953053  0.31317763     0.35400
C2647       C  0.67287726  0.41190796  0.41141461    -0.31700
C2648       C  0.69839524  0.43698213  0.41696596    -0.14400
C2649       C  0.72218690  0.43432100  0.42315099     0.36200
C2650       C  0.72041544  0.40712181  0.42304684    -0.25800
C2651       C  0.69515403  0.38188974  0.41716245    -0.15000
C2652       C  0.67094188  0.38439964  0.41135589     0.37300
N2653       N  0.64458213  0.35929372  0.40530870    -0.89300
H2654       H  0.65445337  0.41390533  0.40691930     0.18400
H2655       H  0.73902004  0.40579265  0.42794137     0.18400
N2656       N  0.74794798  0.45857388  0.43041578    -0.88300
H2657       H  0.64929348  0.35231256  0.39322638     0.35800
H2658       H  0.62866567  0.36481213  0.40221590     0.40900
H2659       H  0.74190407  0.46764721  0.44090287     0.40500
H2660       H  0.75816405  0.47420576  0.42031656     0.35400
C2661       C  0.76015786  0.06950927  0.36884501    -0.26300
C2662       C  0.78678522  0.09018220  0.37669383    -0.14400
C2663       C  0.79181627  0.08714185  0.39523016     0.36200
C2664       C  0.77027481  0.06364567  0.40525427    -0.25800
C2665       C  0.74420132  0.04290392  0.39714905    -0.15000
C2666       C  0.73905034  0.04603676  0.37881813     0.37300
N2667       N  0.71248756  0.02566485  0.37002842    -0.89300
H2668       H  0.75565833  0.07140131  0.35475994     0.18400
H2669       H  0.77406332  0.06108760  0.41937581     0.18400
N2670       N  0.81884823  0.10738626  0.40377368    -0.88300
H2671       H  0.69511978  0.02509977  0.37705607     0.35800
H2672       H  0.71045092  0.00502488  0.37075858     0.40900
H2673       H  0.83522103  0.10455016  0.39797381     0.40500
H2674       H  0.81850575  0.10251413  0.41752302     0.35400
C2675       C  0.63561892  0.50063388  0.43028984    -0.26300
C2676       C  0.65800943  0.49839524  0.43889726    -0.14400
C2677       C  0.66015222  0.99637239  0.45964279     0.36200
C2678       C  0.63728379  0.49910443  0.46796258    -0.25800
C2679       C  0.61419775  0.50060385  0.45950606    -0.15000
C2680       C  0.61370691  0.50185206  0.44032619     0.37300
N2681       N  0.59102992  0.50411574  0.43103029    -0.89300
H2682       H  0.63508230  0.50108131  0.41564856     0.18400
H2683       H  0.63768615  0.99375540  0.48413783     0.18400
N2684       N  0.68107886  0.99154419  0.46904687    -0.88300
H2685       H  0.60521344  0.02036163  0.41999759     0.35800
H2686       H  0.59382559  0.52466046  0.43386648     0.40900
H2687       H  0.70186256  0.51444743  0.46320038     0.40500
H2688       H  0.68172302  0.47758018  0.46402074     0.35400
C2689       C  0.61651833  0.27243680  0.42089921    -0.26300
C2690       C  0.64258128  0.27386859  0.41539942    -0.14400
C2691       C  0.64182630  0.24816134  0.40929557     0.36200
C2692       C  0.61529072  0.22172599  0.40930338    -0.25800
C2693       C  0.58944065  0.22046345  0.41486805    -0.15000
C2694       C  0.59002170  0.24599390  0.42081187     0.37300
N2695       N  0.56377687  0.24480855  0.42706670    -0.89300
H2696       H  0.61687460  0.29190796  0.42570000     0.18400
H2697       H  0.61461635  0.20203057  0.40463351     0.18400
N2698       N  0.66777104  0.24894577  0.40281062    -0.88300
H2699       H  0.56789926  0.26551001  0.43097248     0.35800
H2700       H  0.55698151  0.23180060  0.43865094     0.40900
H2701       H  0.67420859  0.26158604  0.39102058     0.40500
H2702       H  0.66348009  0.22816650  0.39911252     0.35400
C2703       C  0.99138805  0.16624723  0.37850126    -0.26300
C2704       C  0.98776817  0.16388853  0.39729032    -0.14400
C2705       C  0.96235981  0.16165523  0.40488147     0.36200
C2706       C  0.94131752  0.16217513  0.39359591    -0.25800
C2707       C  0.94506195  0.16525190  0.37469351    -0.15000
C2708       C  0.97053896  0.16713335  0.36709848     0.37300
N2709       N  0.97566339  0.17060127  0.34793911    -0.89300
H2710       H  0.50838566  0.16370760  0.36847425     0.18400
H2711       H  0.92207353  0.16061736  0.39977206     0.18400
N2712       N  0.95790672  0.15999455  0.42403710    -0.88300
H2713       H  0.99467951  0.17023879  0.34460667     0.35800
H2714       H  0.97944139  0.19131755  0.34446176     0.40900
H2715       H  0.97543366  0.17818569  0.42999186     0.40500
H2716       H  0.95760690  0.14130113  0.42888381     0.35400
C2717       C  0.52258921  0.06912950  0.44141566    -0.26300
C2718       C  0.53076499  0.07543222  0.45972187    -0.14400
C2719       C  0.53857097  0.10339125  0.46633896     0.36200
C2720       C  0.53832725  0.12422459  0.45472288    -0.25800
C2721       C  0.53053325  0.11806333  0.43645731    -0.15000
C2722       C  0.52241813  0.09014251  0.42972168     0.37300
N2723       N  0.51466456  0.08343095  0.41100376    -0.89300
H2724       H  0.51647097  0.04777742  0.43614529     0.18400
H2725       H  0.54462731  0.14563005  0.46001108     0.18400
N2726       N  0.54750477  0.11114550  0.48474402    -0.88300
H2727       H  0.50916301  0.06194256  0.40822767     0.35800
H2728       H  0.53312553  0.09676205  0.40329589     0.40900
H2729       H  0.53363504  0.11744431  0.49070631     0.40500
H2730       H  0.56858274  0.12911914  0.48477654     0.35400
C2731       C  0.77900661  0.30632900  0.42739228    -0.26300
C2732       C  0.80438517  0.33187534  0.42234141    -0.14400
C2733       C  0.80251667  0.35638229  0.41696192     0.36200
C2734       C  0.77538323  0.35494321  0.41656007    -0.25800
C2735       C  0.74973110  0.32924181  0.42130232    -0.15000
C2736       C  0.75178706  0.30481497  0.42703284     0.37300
N2737       N  0.72648222  0.27854348  0.43273308    -0.89300
H2738       H  0.78034024  0.28744057  0.43167525     0.18400
H2739       H  0.77442380  0.37392466  0.41204701     0.18400
N2740       N  0.82802886  0.38246032  0.41125288    -0.88300
H2741       H  0.72984194  0.27414405  0.44603975     0.35800
H2742       H  0.72440660  0.26153933  0.42456984     0.40900
H2743       H  0.83036862  0.39953672  0.41944777     0.40500
H2744       H  0.82470444  0.38697003  0.39796678     0.35400
C2745       C  0.87813456  0.27669830  0.40445250    -0.26300
C2746       C  0.86601426  0.29313446  0.39777219    -0.14400
C2747       C  0.85717788  0.29002216  0.37955524     0.36200
C2748       C  0.85920806  0.26960391  0.36858446    -0.25800
C2749       C  0.87006822  0.25208662  0.37542001    -0.15000
C2750       C  0.88053449  0.25639304  0.39344300     0.37300
N2751       N  0.89366309  0.24031001  0.40050349    -0.89300
H2752       H  0.88539541  0.27945225  0.41838693     0.18400
H2753       H  0.85160565  0.26705863  0.35473418     0.18400
N2754       N  0.84639016  0.30782498  0.37208924    -0.88300
H2755       H  0.89985744  0.24583169  0.41398459     0.35800
H2756       H  0.91283236  0.24671355  0.39322806     0.40900
H2757       H  0.82539590  0.29411618  0.36711420     0.40500
H2758       H  0.85968164  0.31950748  0.36121031     0.35400
C2759       C  0.94978689  0.42418159  0.44561323    -0.26300
C2760       C  0.95342017  0.41725903  0.46346392    -0.14400
C2761       C  0.93450282  0.38883080  0.47014559     0.36200
C2762       C  0.91192636  0.36855600  0.45908014    -0.25800
C2763       C  0.90812535  0.37589221  0.44150740    -0.15000
C2764       C  0.92735605  0.40384082  0.43464866     0.37300
N2765       N  0.92432519  0.41214321  0.41667643    -0.89300
H2766       H  0.96404193  0.44576407  0.44023397     0.18400
H2767       H  0.89711045  0.34690916  0.46417536     0.18400
N2768       N  0.93827804  0.38053016  0.48804022    -0.88300
H2769       H  0.90363577  0.40989430  0.41542052     0.35800
H2770       H  0.92577708  0.39782372  0.40761434     0.40900
H2771       H  0.95815844  0.38086276  0.48828989     0.40500
H2772       H  0.92219624  0.35908098  0.49089057     0.35400
C2773       C  0.88626415  0.07885234  0.59510750    -0.26300
C2774       C  0.86548329  0.05515122  0.58512176    -0.14400
C2775       C  0.84455493  0.05779027  0.57481819     0.36200
C2776       C  0.84518513  0.08459454  0.57442325    -0.25800
C2777       C  0.86648072  0.10868210  0.58404900    -0.15000
C2778       C  0.88688994  0.10548671  0.59480995     0.37300
N2779       N  0.90761810  0.12833137  0.60617926    -0.89300
H2780       H  0.90197244  0.07651621  0.60332239     0.18400
H2781       H  0.82936229  0.08686433  0.56630103     0.18400
N2782       N  0.82296259  0.03332027  0.56475131    -0.88300
H2783       H  0.89650970  0.13543092  0.61452866     0.35800
H2784       H  0.92234399  0.14561632  0.59815645     0.40900
H2785       H  0.83381694  0.02832000  0.55483048     0.40500
H2786       H  0.80907071  0.03883525  0.55794994     0.35400
C2787       C  0.79525068  0.43391864  0.63693089    -0.26300
C2788       C  0.77924929  0.40573541  0.62989399    -0.14400
C2789       C  0.78509306  0.39984654  0.61231529     0.36200
C2790       C  0.80631923  0.42272180  0.60182047    -0.25800
C2791       C  0.82198894  0.45114362  0.60871583    -0.15000
C2792       C  0.81689961  0.45651943  0.62663183     0.37300
N2793       N  0.83401648  0.48478114  0.63451724    -0.89300
H2794       H  0.79106777  0.43834964  0.65055720     0.18400
H2795       H  0.81016614  0.41852204  0.58806908     0.18400
N2796       N  0.76850434  0.37104554  0.60490379    -0.88300
H2797       H  0.81992263  0.49210155  0.63865534     0.35800
H2798       H  0.84436695  0.48266121  0.64601322     0.40900
H2799       H  0.77390672  0.35744326  0.61218863     0.40500
H2800       H  0.77460084  0.37071489  0.59152704     0.35400
C2801       C  0.93588593  0.51292108  0.56990229    -0.26300
C2802       C  0.90666929  0.49316618  0.56582563    -0.14400
C2803       C  0.90000633  0.47352625  0.55132507     0.36200
C2804       C  0.92262388  0.47438777  0.54110300    -0.25800
C2805       C  0.95186402  0.49491515  0.54477235    -0.15000
C2806       C  0.95846390  0.51404881  0.55958294     0.37300
N2807       N  0.98781547  0.53437690  0.56474904    -0.89300
H2808       H  0.94116761  0.52792898  0.58108089     0.18400
H2809       H  0.91725952  0.45953295  0.52983401     0.18400
N2810       N  0.87057154  0.45347021  0.54616313    -0.88300
H2811       H  0.99779683  0.54948921  0.55436180     0.35800
H2812       H  0.99904113  0.52299281  0.56677469     0.40900
H2813       H  0.85990361  0.46523354  0.54352637     0.40500
H2814       H  0.86013573  0.43923663  0.55689550     0.35400
C2815       C  0.97336792  0.24347896  0.57313111    -0.26300
C2816       C  0.97467791  0.26819102  0.58081460    -0.14400
C2817       C  0.94903779  0.26678105  0.58736215     0.36200
C2818       C  0.92256931  0.24042230  0.58633358    -0.25800
C2819       C  0.92116365  0.21528906  0.57905330    -0.15000
C2820       C  0.94703081  0.21718686  0.57204657     0.37300
N2821       N  0.94729973  0.19332931  0.56316779    -0.89300
H2822       H  0.99296546  0.24474431  0.56772341     0.18400
H2823       H  0.90306571  0.23937451  0.59170406     0.18400
N2824       N  0.95010032  0.29205917  0.59525862    -0.88300
H2825       H  0.93152144  0.18553299  0.55294843     0.35800
H2826       H  0.94267899  0.17683649  0.57252279     0.40900
H2827       H  0.96282710  0.29722081  0.60696370     0.40500
H2828       H  0.92934346  0.28746730  0.59931822     0.35400
C2829       C  0.61041433  0.30949832  0.61074590    -0.26300
C2830       C  0.62261449  0.33099947  0.62418015    -0.14400
C2831       C  0.61391784  0.35221252  0.62526611     0.36200
C2832       C  0.59244542  0.35072078  0.61333396    -0.25800
C2833       C  0.57954238  0.32856496  0.60032754    -0.15000
C2834       C  0.58934434  0.30833779  0.59872921     0.37300
N2835       N  0.57825594  0.28681837  0.58473547    -0.89300
H2836       H  0.61738764  0.29351393  0.60947950     0.18400
H2837       H  0.58496759  0.36629630  0.61463957     0.18400
N2838       N  0.62615843  0.37459900  0.63880270    -0.88300
H2839       H  0.56909138  0.26628111  0.59081140     0.35800
H2840       H  0.59579904  0.28964193  0.57681882     0.40900
H2841       H  0.61959720  0.36449776  0.65143183     0.40500
H2842       H  0.61768180  0.38861961  0.63760234     0.35400
C2843       C  0.51197172  0.40280823  0.55267421    -0.26300
C2844       C  0.53563287  0.41971253  0.54120939    -0.14400
C2845       C  0.55890771  0.41390269  0.54054491     0.36200
C2846       C  0.55771629  0.39101089  0.55081899    -0.25800
C2847       C  0.53366360  0.37356371  0.56182573    -0.15000
C2848       C  0.51092558  0.38008448  0.56306561     0.37300
N2849       N  0.48691374  0.36396075  0.57505260    -0.89300
H2850       H  0.49415418  0.40726676  0.55364481     0.18400
H2851       H  0.57530895  0.38624596  0.54968008     0.18400
N2852       N  0.58333028  0.43040283  0.52893108    -0.88300
H2853       H  0.46773910  0.35466496  0.56740639     0.35800
H2854       H  0.48608581  0.37857337  0.58416344     0.40900
H2855       H  0.58473885  0.41603058  0.51988935     0.40500
H2856       H  0.60217422  0.43980401  0.53688758     0.35400
C2857       C  0.76109909  0.13977825  0.58706174    -0.26300
C2858       C  0.76085099  0.16501332  0.58160654    -0.14400
C2859       C  0.78723656  0.18957787  0.57592312     0.36200
C2860       C  0.81310286  0.18834481  0.57638199    -0.25800
C2861       C  0.81339228  0.16299073  0.58177275    -0.15000
C2862       C  0.78687299  0.13847820  0.58722930     0.37300
N2863       N  0.78586421  0.11229531  0.59332915    -0.89300
H2864       H  0.74107301  0.12093470  0.59153763     0.18400
H2865       H  0.83306849  0.20732733  0.57202081     0.18400
N2866       N  0.78868839  0.21581385  0.56923235    -0.88300
H2867       H  0.77130070  0.09518139  0.58507225     0.35800
H2868       H  0.77769931  0.10799589  0.60651176     0.40900
H2869       H  0.76808262  0.21369026  0.56812597     0.40500
H2870       H  0.79674305  0.21911791  0.55604329     0.35400
C2871       C  0.71146876  0.20955668  0.62462443    -0.26300
C2872       C  0.70072805  0.20528565  0.60684259    -0.14400
C2873       C  0.68834268  0.22180999  0.60032852     0.36200
C2874       C  0.68643174  0.24180080  0.61187912    -0.25800
C2875       C  0.69753679  0.24623943  0.62951810    -0.15000
C2876       C  0.71007773  0.22996668  0.63602053     0.37300
N2877       N  0.72109523  0.23409599  0.65420419    -0.89300
H2878       H  0.72083049  0.19677857  0.62965351     0.18400
H2879       H  0.67717339  0.25471979  0.60692652     0.18400
N2880       N  0.67854503  0.21883361  0.58190247    -0.88300
H2881       H  0.72969525  0.22047427  0.65686957     0.35800
H2882       H  0.70345449  0.22764035  0.66295671     0.40900
H2883       H  0.69676496  0.22580634  0.57357439     0.40500
H2884       H  0.67012959  0.23261151  0.57927413     0.35400
C2885       C  0.62640155  0.06851344  0.55483498    -0.26300
C2886       C  0.60938295  0.07613905  0.54397693    -0.14400
C2887       C  0.61436192  0.10497660  0.54478201     0.36200
C2888       C  0.63717433  0.12568511  0.55561757    -0.25800
C2889       C  0.65508568  0.11829002  0.56569469    -0.15000
C2890       C  0.64882522  0.08907875  0.56585292     0.37300
N2891       N  0.66521417  0.08037459  0.57725252    -0.89300
H2892       H  0.62220471  0.04629834  0.55474412     0.18400
H2893       H  0.64174151  0.14802624  0.55562518     0.18400
N2894       N  0.59696422  0.11347491  0.53423128    -0.88300
H2895       H  0.65792891  0.05817430  0.57577351     0.35800
H2896       H  0.66117791  0.08342961  0.59066808     0.40900
H2897       H  0.60157425  0.11247908  0.52061453     0.40500
H2898       H  0.60293950  0.13515561  0.53680775     0.35400
C2899       C  0.55217119  0.10007087  0.75880959    -0.26300
C2900       C  0.52879047  0.10072382  0.75036025    -0.14400
C2901       C  0.50622367  0.07511014  0.74255266     0.36200
C2902       C  0.50756712  0.04944469  0.74322522    -0.25800
C2903       C  0.53106759  0.04866328  0.75158422    -0.15000
C2904       C  0.55338062  0.07423567  0.75964609     0.37300
N2905       N  0.57680280  0.07391609  0.76917388    -0.89300
H2906       H  0.56932414  0.11962461  0.76506834     0.18400
H2907       H  0.99063027  0.02973539  0.74051294     0.18400
N2908       N  0.98430135  0.07560931  0.73765046    -0.88300
H2909       H  0.57664825  0.08033195  0.78251562     0.35800
H2910       H  0.59636471  0.08934661  0.76323040     0.40900
H2911       H  0.99215550  0.09126018  0.72736445     0.40500
H2912       H  0.97391104  0.08158001  0.74729238     0.35400
C2913       C  0.56925060  0.19852940  0.71006925    -0.26300
C2914       C  0.56867561  0.20287570  0.72871702    -0.14400
C2915       C  0.58867172  0.23007700  0.73616134     0.36200
C2916       C  0.60957514  0.25198626  0.72502447    -0.25800
C2917       C  0.61104488  0.24735031  0.70642201    -0.15000
C2918       C  0.59001414  0.22043568  0.69886999     0.37300
N2919       N  0.59000318  0.21479670  0.67994657    -0.89300
H2920       H  0.55367687  0.17779121  0.70417402     0.18400
H2921       H  0.62513823  0.27253249  0.73111789     0.18400
N2922       N  0.58861814  0.23515238  0.75516151    -0.88300
H2923       H  0.56969073  0.20973657  0.67463967     0.35800
H2924       H  0.59248747  0.19654113  0.67844924     0.40900
H2925       H  0.58561645  0.25306651  0.75690151     0.40500
H2926       H  0.60906529  0.24056853  0.76037298     0.35400
C2927       C  0.95355854  0.17443667  0.77975377    -0.26300
C2928       C  0.94858339  0.16318004  0.79738219    -0.14400
C2929       C  0.96567136  0.15187481  0.80436242     0.36200
C2930       C  0.98717081  0.15156985  0.79342245    -0.25800
C2931       C  0.99169808  0.16196296  0.77550945    -0.15000
C2932       C  0.97454504  0.17343603  0.76859124     0.37300
N2933       N  0.97769789  0.18302075  0.75011436    -0.89300
H2934       H  0.94024011  0.18302881  0.77447075     0.18400
H2935       H  0.49630067  0.13925040  0.79710458     0.18400
N2936       N  0.96113294  0.14082248  0.82254952    -0.88300
H2937       H  0.96345431  0.19077894  0.74718210     0.35800
H2938       H  0.97148982  0.16484026  0.74187929     0.40900
H2939       H  0.96643881  0.15826291  0.83127745     0.40500
H2940       H  0.97537288  0.13310344  0.82560856     0.35400
C2941       C  0.61827515  0.47204850  0.75996105    -0.26300
C2942       C  0.64340954  0.49625775  0.75324239    -0.14400
C2943       C  0.63784516  0.02156010  0.74462805     0.36200
C2944       C  0.61091570  0.02048619  0.74513565    -0.25800
C2945       C  0.58940298  0.49495718  0.75275051    -0.15000
C2946       C  0.59139812  0.47123728  0.75989479     0.37300
N2947       N  0.56642325  0.44653080  0.76746310    -0.89300
H2948       H  0.61956713  0.45369178  0.76538873     0.18400
H2949       H  0.60984321  0.03947679  0.74077480     0.18400
N2950       N  0.66248877  0.04743844  0.73781382    -0.88300
H2951       H  0.57107675  0.44435074  0.78093755     0.35800
H2952       H  0.56303633  0.42799100  0.76045856     0.40900
H2953       H  0.67138488  0.04170383  0.72706686     0.40500
H2954       H  0.67811162  0.05679059  0.74800569     0.35400
C2955       C  0.74833318  0.06823792  0.77173685    -0.26300
C2956       C  0.74197149  0.03919383  0.77282322    -0.14400
C2957       C  0.75863234  0.03201190  0.78449395     0.36200
C2958       C  0.78133037  0.05408073  0.79472547    -0.25800
C2959       C  0.78729037  0.08305304  0.79388501    -0.15000
C2960       C  0.77070569  0.09020173  0.78207334     0.37300
N2961       N  0.77676983  0.11977285  0.78042816    -0.89300
H2962       H  0.73586879  0.07388825  0.76260448     0.18400
H2963       H  0.79382764  0.04844800  0.80383466     0.18400
N2964       N  0.75195873  0.00228895  0.78630554    -0.88300
H2965       H  0.76226380  0.12118504  0.77142770     0.35800
H2966       H  0.79752548  0.13198491  0.77478398     0.40900
H2967       H  0.73113135  0.99044822  0.79188089     0.40500
H2968       H  0.76624825  0.00070580  0.79542162     0.35400
C2969       C  0.70766502  0.43250740  0.73811384    -0.26300
C2970       C  0.70123280  0.45269367  0.73018599    -0.14400
C2971       C  0.69543025  0.45120659  0.71154713     0.36200
C2972       C  0.69483352  0.42880560  0.70124926    -0.25800
C2973       C  0.70016153  0.40774736  0.70921173    -0.15000
C2974       C  0.70723828  0.41010005  0.72782261     0.37300
N2975       N  0.71426388  0.39005252  0.73634450    -0.89300
H2976       H  0.71246989  0.43379251  0.75244691     0.18400
H2977       H  0.68987836  0.42782724  0.68695948     0.18400
N2978       N  0.69046179  0.47266566  0.70301077    -0.88300
H2979       H  0.69969928  0.37992386  0.74700073     0.35800
H2980       H  0.73522502  0.40192851  0.74179384     0.40900
H2981       H  0.66995928  0.46198143  0.69686962     0.40500
H2982       H  0.70607861  0.48280292  0.69286616     0.35400
C2983       C  0.94883622  0.38950989  0.74443417    -0.26300
C2984       C  0.92428535  0.38963351  0.75134278    -0.14400
C2985       C  0.92703927  0.41593630  0.75781104     0.36200
C2986       C  0.95411263  0.44146407  0.75709787    -0.25800
C2987       C  0.97880716  0.44144906  0.75016186    -0.15000
C2988       C  0.97596352  0.41510968  0.74370304     0.37300
N2989       N  0.50211164  0.41444581  0.73892105    -0.89300
H2990       H  0.94686124  0.36939649  0.73941873     0.18400
H2991       H  0.95589028  0.46138538  0.76229983     0.18400
N2992       N  0.90306898  0.41718928  0.76578095    -0.88300
H2993       H  0.49670223  0.40641316  0.72574173     0.35800
H2994       H  0.50504867  0.39949820  0.74660039     0.40900
H2995       H  0.89481850  0.40213203  0.77637693     0.40500
H2996       H  0.88676124  0.41147556  0.75607402     0.35400
C2997       C  0.89139842  0.28188517  0.77206149    -0.26300
C2998       C  0.86764263  0.28677835  0.77270642    -0.14400
C2999       C  0.84371236  0.26896578  0.78392159     0.36200
C3000       C  0.84390356  0.24652112  0.79396392    -0.25800
C3001       C  0.86791710  0.24207654  0.79365053    -0.15000
C3002       C  0.89192028  0.25990772  0.78246828     0.37300
N3003       N  0.91663372  0.25559285  0.78159554    -0.89300
H3004       H  0.90967558  0.29527670  0.76333429     0.18400
H3005       H  0.82556822  0.23308588  0.80264308     0.18400
N3006       N  0.81975718  0.27433026  0.78560055    -0.88300
H3007       H  0.93260370  0.27090046  0.77299492     0.35800
H3008       H  0.90962604  0.23516908  0.77582809     0.40900
H3009       H  0.82774630  0.29478900  0.79155003     0.40500
H3010       H  0.80392623  0.25924065  0.79435913     0.35400
C3011       C  0.79648306  0.32045125  0.70260236    -0.26300
C3012       C  0.77526501  0.32538668  0.71065843    -0.14400
C3013       C  0.77731538  0.33145951  0.72943955     0.36200
C3014       C  0.80025150  0.33220025  0.73956299    -0.25800
C3015       C  0.82142587  0.32770339  0.73129003    -0.15000
C3016       C  0.81946977  0.32175259  0.71266002     0.37300
N3017       N  0.84071889  0.31715797  0.70362129    -0.89300
H3018       H  0.79544127  0.31577122  0.68828579     0.18400
H3019       H  0.80215262  0.33714858  0.75387487     0.18400
N3020       N  0.75673409  0.33761649  0.73811316    -0.88300
H3021       H  0.84128203  0.29971712  0.70987310     0.35800
H3022       H  0.86112229  0.33579834  0.70518993     0.40900
H3023       H  0.75984959  0.35731855  0.73286675     0.40500
H3024       H  0.76100878  0.34091761  0.75197573     0.35400
C3025       C  0.96080566  0.26805058  0.90592382    -0.26300
C3026       C  0.98734192  0.28797028  0.89785937    -0.14400
C3027       C  0.99136099  0.28578737  0.87922426     0.36200
C3028       C  0.96917891  0.26321568  0.86914621    -0.25800
C3029       C  0.94270641  0.24275702  0.87715654    -0.15000
C3030       C  0.93849649  0.24549203  0.89578106     0.37300
N3031       N  0.91166048  0.22565460  0.90447911    -0.89300
H3032       H  0.95755861  0.26972082  0.92023017     0.18400
H3033       H  0.97276346  0.26164229  0.85489005     0.18400
N3034       N  0.50373291  0.31875082  0.86912568    -0.88300
H3035       H  0.90279195  0.23769702  0.90995649     0.35800
H3036       H  0.91632279  0.21559866  0.91513207     0.40900
H3037       H  0.50082264  0.33565007  0.87396105     0.40500
H3038       H  0.49989067  0.31753401  0.85519814     0.35400
C3039       C  0.51780445  0.36681731  0.95690570    -0.26300
C3040       C  0.52880288  0.37428682  0.93931943    -0.14400
C3041       C  0.54002995  0.40315405  0.93323788     0.36200
C3042       C  0.53976827  0.42392993  0.94473705    -0.25800
C3043       C  0.52904535  0.41674739  0.96250589    -0.15000
C3044       C  0.51780310  0.38771586  0.96861611     0.37300
N3045       N  0.00402397  0.38009127  0.98600975    -0.89300
H3046       H  0.00982589  0.34577959  0.96182946     0.18400
H3047       H  0.54864939  0.44604584  0.93983503     0.18400
N3048       N  0.55206238  0.41194552  0.91548920    -0.88300
H3049       H  0.99839799  0.35854958  0.98882463     0.35800
H3050       H  0.98476239  0.38095122  0.98668437     0.40900
H3051       H  0.53610163  0.39900657  0.90606307     0.40500
H3052       H  0.56953916  0.40814126  0.91420029     0.35400
C3053       C  0.63873882  0.35304147  0.91253134    -0.26300
C3054       C  0.63816804  0.32693863  0.91706798    -0.14400
C3055       C  0.61123796  0.30223165  0.92160780     0.36200
C3056       C  0.58572568  0.30402213  0.92131020    -0.25800
C3057       C  0.58650876  0.33014437  0.91689328    -0.15000
C3058       C  0.61324083  0.35483279  0.91247097     0.37300
N3059       N  0.61448839  0.38162529  0.90759861    -0.89300
H3060       H  0.65905519  0.37225603  0.90891533     0.18400
H3061       H  0.56522207  0.28500934  0.92492252     0.18400
N3062       N  0.60963815  0.27550017  0.92704364    -0.88300
H3063       H  0.62327056  0.38739859  0.89461109     0.35800
H3064       H  0.62870314  0.39773919  0.91655009     0.40900
H3065       H  0.59527883  0.25906823  0.91832816     0.40500
H3066       H  0.60090967  0.27039776  0.94008171     0.35400
C3067       C  0.71619178  0.27197206  0.92368441    -0.26300
C3068       C  0.69180086  0.27272581  0.91677705    -0.14400
C3069       C  0.66825550  0.24685561  0.90973943     0.36200
C3070       C  0.66972999  0.22116440  0.90956771    -0.25800
C3071       C  0.69427686  0.22071732  0.91623155    -0.15000
C3072       C  0.71755650  0.24631297  0.92360092     0.37300
N3073       N  0.74234492  0.24662233  0.93166613    -0.89300
H3074       H  0.73424272  0.29136460  0.92947460     0.18400
H3075       H  0.65165983  0.20145899  0.90407346     0.18400
N3076       N  0.64302049  0.24653907  0.90244021    -0.88300
H3077       H  0.75304157  0.24133646  0.92184288     0.35800
H3078       H  0.73503871  0.23079405  0.94183713     0.40900
H3079       H  0.62481501  0.23109491  0.90960082     0.40500
H3080       H  0.64064771  0.23979168  0.88897610     0.35400
C3081       C  0.74165312  0.17094195  0.87620320    -0.26300
C3082       C  0.73777670  0.16184906  0.89432994    -0.14400
C3083       C  0.75646351  0.15281200  0.90195268     0.36200
C3084       C  0.77838701  0.15284944  0.89123891    -0.25800
C3085       C  0.78241392  0.16212307  0.87310575    -0.15000
C3086       C  0.76374604  0.17132692  0.86560382     0.37300
N3087       N  0.76750060  0.18181819  0.84737798    -0.89300
H3088       H  0.72757234  0.17812253  0.87024206     0.18400
H3089       H  0.79256395  0.14578647  0.89717428     0.18400
N3090       N  0.75365152  0.14437061  0.92065385    -0.88300
H3091       H  0.77124394  0.20315125  0.84765842     0.35800
H3092       H  0.74806442  0.16897559  0.84035866     0.40900
H3093       H  0.75850699  0.16270570  0.92842875     0.40500
H3094       H  0.76896743  0.13821971  0.92412731     0.35400
C3095       C  0.63004153  0.10237100  0.96765761    -0.26300
C3096       C  0.61066987  0.07498664  0.96025013    -0.14400
C3097       C  0.61408104  0.06947894  0.94195287     0.36200
C3098       C  0.63588837  0.09187452  0.93138724    -0.25800
C3099       C  0.65441454  0.11947414  0.93874138    -0.15000
C3100       C  0.65178593  0.12445476  0.95714758     0.37300
N3101       N  0.67133512  0.15195883  0.96526720    -0.89300
H3102       H  0.62811087  0.10696474  0.98168894     0.18400
H3103       H  0.63805130  0.08799635  0.91725536     0.18400
N3104       N  0.59557315  0.04129178  0.93415711    -0.88300
H3105       H  0.68195808  0.14826837  0.97601689     0.35800
H3106       H  0.65898010  0.16061858  0.97054950     0.40900
H3107       H  0.60002003  0.02646986  0.94078309     0.40500
H3108       H  0.60071266  0.04107694  0.92054480     0.35400
C3109       C  0.77092809  0.38059145  0.91389647    -0.26300
C3110       C  0.74529311  0.37989991  0.91958780    -0.14400
C3111       C  0.74692307  0.40596385  0.92565865     0.36200
C3112       C  0.77382886  0.43182771  0.92595285    -0.25800
C3113       C  0.79932164  0.43239366  0.92030400    -0.15000
C3114       C  0.79772344  0.40645977  0.91401867     0.37300
N3115       N  0.82256423  0.40594785  0.90684792    -0.89300
H3116       H  0.77013715  0.36100928  0.90889408     0.18400
H3117       H  0.77483098  0.45164673  0.93070030     0.18400
N3118       N  0.72149241  0.40636761  0.93176870    -0.88300
H3119       H  0.83805440  0.41130368  0.91704189     0.35800
H3120       H  0.83152660  0.42145638  0.89651988     0.40900
H3121       H  0.71883942  0.42121389  0.92377993     0.40500
H3122       H  0.72506626  0.41388791  0.94509322     0.35400
C3123       C  0.84575352  0.07347595  0.89252423    -0.26300
C3124       C  0.86374342  0.08223462  0.87717343    -0.14400
C3125       C  0.88089390  0.06912494  0.87362267     0.36200
C3126       C  0.87939939  0.04756111  0.88524521    -0.25800
C3127       C  0.86063570  0.03816324  0.90014182    -0.15000
C3128       C  0.84386046  0.05137726  0.90397942     0.37300
N3129       N  0.82493888  0.04217577  0.91943767    -0.89300
H3130       H  0.83269159  0.08350877  0.89538600     0.18400
H3131       H  0.89240835  0.03747031  0.88235313     0.18400
N3132       N  0.90038565  0.07752997  0.85855581    -0.88300
H3133       H  0.81396145  0.05395880  0.92031315     0.35800
H3134       H  0.83799668  0.04724135  0.93098129     0.40900
H3135       H  0.91457132  0.10001529  0.85908182     0.40500
H3136       H  0.88829471  0.07235840  0.84659512     0.35400
C3137       C  0.89904236  0.98551560  0.95972188    -0.26300
C3138       C  0.90197460  0.49355563  0.94151871    -0.14400
C3139       C  0.92910961  0.50168071  0.93353920     0.36200
C3140       C  0.95213871  0.50452920  0.94447466    -0.25800
C3141       C  0.94848414  0.49919291  0.96319659    -0.15000
C3142       C  0.92157938  0.98730421  0.97056593     0.37300
N3143       N  0.91532741  0.97646739  0.98873360    -0.89300
H3144       H  0.87744940  0.97656165  0.96546532     0.18400
H3145       H  0.97293136  0.51065251  0.93829372     0.18400
N3146       N  0.93296202  0.50645843  0.91435542    -0.88300
H3147       H  0.89922814  0.95450226  0.98829653     0.35800
H3148       H  0.90689662  0.98779958  0.99566037     0.40900
H3149       H  0.91922841  0.48665974  0.90798249     0.40500
H3150       H  0.95423740  0.51232631  0.91063492     0.35400
C3151       C  0.78309037  0.06400899  0.08033627    -0.26300
C3152       C  0.75861132  0.06377877  0.08768487    -0.14400
C3153       C  0.76145070  0.08981960  0.09467353     0.36200
C3154       C  0.78848079  0.11546110  0.09403153    -0.25800
C3155       C  0.81309735  0.11595024  0.08648409    -0.15000
C3156       C  0.81016433  0.08978604  0.07953820     0.37300
N3157       N  0.83428769  0.08931321  0.07120234    -0.89300
H3158       H  0.78104905  0.04409268  0.07490670     0.18400
H3159       H  0.79019424  0.13514436  0.09960518     0.18400
N3160       N  0.73746365  0.09071145  0.10290355    -0.88300
H3161       H  0.82843889  0.08201862  0.05790932     0.35800
H3162       H  0.83801603  0.07424206  0.07813064     0.40900
H3163       H  0.72944155  0.07544251  0.11338890     0.40500
H3164       H  0.72101777  0.08493414  0.09327389     0.35400
C3165       C  0.71115729  0.41953271  0.11170319    -0.26300
C3166       C  0.69494206  0.41169643  0.12779041    -0.14400
C3167       C  0.68036713  0.42680134  0.13294639     0.36200
C3168       C  0.68345144  0.45022562  0.12233966    -0.25800
C3169       C  0.70059421  0.45864118  0.10671077    -0.15000
C3170       C  0.71419472  0.44287756  0.10120069     0.37300
N3171       N  0.73104718  0.45007489  0.08495011    -0.89300
H3172       H  0.72218138  0.40794624  0.10749628     0.18400
H3173       H  0.67260907  0.46210678  0.12630287     0.18400
N3174       N  0.66230191  0.41814448  0.14879891    -0.88300
H3175       H  0.74831911  0.47144021  0.08598786     0.35800
H3176       H  0.71780601  0.44904654  0.07413471     0.40900
H3177       H  0.64485282  0.39717283  0.14650566     0.40500
H3178       H  0.65331355  0.43158315  0.15071576     0.35400
C3179       C  0.60540476  0.98526875  0.05859152    -0.26300
C3180       C  0.61515045  0.49839318  0.04064941    -0.14400
C3181       C  0.64401123  0.51075639  0.03409764     0.36200
C3182       C  0.66577503  0.51222289  0.04559014    -0.25800
C3183       C  0.65951161  0.50155023  0.06339177    -0.15000
C3184       C  0.62729491  0.98745311  0.07041312     0.37300
N3185       N  0.61988703  0.97612122  0.08849457    -0.89300
H3186       H  0.58301796  0.97482776  0.06318243     0.18400
H3187       H  0.68781566  0.52165077  0.04049613     0.18400
N3188       N  0.65204077  0.52169574  0.01594739    -0.88300
H3189       H  0.59742115  0.96619630  0.09057809     0.35800
H3190       H  0.62965620  0.99375241  0.09738698     0.40900
H3191       H  0.63407081  0.51842166  0.00831824     0.40500
H3192       H  0.66009110  0.50952367  0.00962406     0.35400
C3193       C  0.88750388  0.27544308  0.09073740    -0.26300
C3194       C  0.86208437  0.27493544  0.08485160    -0.14400
C3195       C  0.83762476  0.24822041  0.07992554     0.36200
C3196       C  0.83937176  0.22261486  0.08059899    -0.25800
C3197       C  0.86503316  0.22307690  0.08618862    -0.15000
C3198       C  0.88905996  0.24980931  0.09172320     0.37300
N3199       N  0.91474818  0.25102973  0.09895356    -0.89300
H3200       H  0.90610891  0.29583813  0.09496566     0.18400
H3201       H  0.82067489  0.20226958  0.07643866     0.18400
N3202       N  0.81125259  0.24727323  0.07407103    -0.88300
H3203       H  0.91767899  0.25904573  0.11215278     0.35800
H3204       H  0.93251231  0.26597490  0.09128267     0.40900
H3205       H  0.81578956  0.25910513  0.06203367     0.40500
H3206       H  0.79519302  0.22590144  0.07107297     0.35400
C3207       C  0.81900401  0.32862835  0.12499074    -0.26300
C3208       C  0.81932723  0.33442260  0.10645961    -0.14400
C3209       C  0.79795079  0.34011363  0.09925257     0.36200
C3210       C  0.77674424  0.33972876  0.11064044    -0.25800
C3211       C  0.77610765  0.33363945  0.12922533    -0.15000
C3212       C  0.79759784  0.32796560  0.13645829     0.37300
N3213       N  0.79734441  0.32087715  0.15526634    -0.89300
H3214       H  0.83525623  0.32396088  0.13045939     0.18400
H3215       H  0.76051139  0.34409970  0.10481086     0.18400
N3216       N  0.79650709  0.34522213  0.08034637    -0.88300
H3217       H  0.81508099  0.31811501  0.15840165     0.35800
H3218       H  0.77865767  0.30072521  0.15751523     0.40900
H3219       H  0.79534997  0.32777514  0.07311096     0.40500
H3220       H  0.81544754  0.36426183  0.07663398     0.35400
C3221       C  0.93382450  0.38783704  0.06817404    -0.26300
C3222       C  0.90451008  0.37773064  0.06388932    -0.14400
C3223       C  0.89758787  0.39040697  0.04922278     0.36200
C3224       C  0.92004524  0.41244763  0.03902665    -0.25800
C3225       C  0.94936926  0.42192285  0.04302343    -0.15000
C3226       C  0.95634073  0.40995326  0.05798039     0.37300
N3227       N  0.98625653  0.42051204  0.06284188    -0.89300
H3228       H  0.93911755  0.37827862  0.07950681     0.18400
H3229       H  0.91454518  0.42160051  0.02756711     0.18400
N3230       N  0.86808187  0.38052020  0.04390876    -0.88300
H3231       H  0.98764018  0.40940076  0.07418388     0.35800
H3232       H  0.99518657  0.44229554  0.06664226     0.40900
H3233       H  0.85740905  0.38429426  0.05449646     0.40500
H3234       H  0.85777779  0.35812551  0.04150138     0.35400
C3235       C  0.97235982  0.19353945  0.07443082    -0.26300
C3236       C  0.97348504  0.16923888  0.08085441    -0.14400
C3237       C  0.94810033  0.14541778  0.08785897     0.36200
C3238       C  0.92208347  0.14633163  0.08844101    -0.25800
C3239       C  0.92080530  0.17085983  0.08228520    -0.15000
C3240       C  0.94652108  0.19465565  0.07498810     0.37300
N3241       N  0.94723147  0.22004049  0.06766808    -0.89300
H3242       H  0.99182491  0.21188824  0.06891723     0.18400
H3243       H  0.90291607  0.12786555  0.09411501     0.18400
N3244       N  0.94889617  0.12061896  0.09492639    -0.88300
H3245       H  0.94362839  0.23110146  0.07809943     0.35800
H3246       H  0.93096727  0.21368167  0.05787322     0.40900
H3247       H  0.93364579  0.10223406  0.08784950     0.40500
H3248       H  0.94250193  0.11803241  0.10848366     0.35400
C3249       C  0.56430235  0.21477729  0.12157375    -0.26300
C3250       C  0.57168983  0.21331361  0.10356028    -0.14400
C3251       C  0.60009179  0.23249907  0.09754536     0.36200
C3252       C  0.62082074  0.25237272  0.10963994    -0.25800
C3253       C  0.61381336  0.25365994  0.12782702    -0.15000
C3254       C  0.58488493  0.23458163  0.13374426     0.37300
N3255       N  0.57539745  0.23509892  0.15178591    -0.89300
H3256       H  0.54232602  0.20025528  0.12625815     0.18400
H3257       H  0.64260662  0.26688655  0.10467720     0.18400
N3258       N  0.60775399  0.23239564  0.07901200    -0.88300
H3259       H  0.57957601  0.25616035  0.15466843     0.35800
H3260       H  0.58686029  0.22930048  0.16080349     0.40900
H3261       H  0.62520897  0.22845515  0.07863532     0.40500
H3262       H  0.61482319  0.25315031  0.07364932     0.35400
C3263       C  0.55321745  0.13500666  0.04650908    -0.26300
C3264       C  0.53496197  0.12788119  0.06162492    -0.14400
C3265       C  0.51882560  0.09855844  0.06730171     0.36200
C3266       C  0.51969427  0.07680102  0.05714228    -0.25800
C3267       C  0.53703276  0.08369940  0.04161133    -0.15000
C3268       C  0.55445627  0.11312237  0.03649668     0.37300
N3269       N  0.57239884  0.12070832  0.02071657    -0.89300
H3270       H  0.56582308  0.15748778  0.04214666     0.18400
H3271       H  0.50671036  0.05430332  0.06140857     0.18400
N3272       N  0.50169803  0.09036677  0.08346718    -0.88300
H3273       H  0.09438512  0.13264846  0.02726330     0.35800
H3274       H  0.06771873  0.13104740  0.01382067     0.40900
H3275       H  0.48554321  0.09604383  0.08216873     0.40500
H3276       H  0.51529206  0.10206434  0.09426890     0.35400
C3277       C  0.54972766  0.68666949  0.09541663     0.03100
C3278       C  0.52348915  0.68708783  0.09447828    -0.13000
C3279       C  0.49973999  0.66571670  0.08473657     0.00600
C3280       C  0.50251547  0.64410640  0.07558453    -0.11600
C3281       C  0.52860707  0.64333664  0.07644350     0.03100
C3282       C  0.55220090  0.66468687  0.08641961    -0.11000
H3283       H  0.52142254  0.70385004  0.10155985     0.08700
H3284       H  0.98750103  0.63138003  0.06211877     0.06200
H3285       H  0.57246585  0.66433226  0.08705866     0.06100
C3286       C  0.88229158  0.85188617  0.07344369     0.03100
C3287       C  0.86150820  0.85456322  0.08377192    -0.13000
C3288       C  0.83987617  0.83041743  0.09325083     0.00600
C3289       C  0.83934260  0.80367418  0.09246239    -0.11600
C3290       C  0.86023492  0.80097698  0.08238099     0.03100
C3291       C  0.88163757  0.82513417  0.07298333    -0.11000
H3292       H  0.86255915  0.87545935  0.08477697     0.08700
H3293       H  0.82299830  0.78512361  0.09996820     0.06200
H3294       H  0.89778402  0.82304873  0.06516772     0.06100
C3295       C  0.68096425  0.00550875  0.07660297     0.03100
C3296       C  0.70977130  0.53120195  0.07605609    -0.13000
C3297       C  0.73286174  0.53421036  0.08686499     0.00600
C3298       C  0.72981642  0.51047024  0.09697749    -0.11600
C3299       C  0.70190135  0.98582344  0.09801099     0.03100
C3300       C  0.67872930  0.98217323  0.08698539    -0.11000
H3301       H  0.71235205  0.54965003  0.06820040     0.08700
H3302       H  0.74771777  0.51271881  0.10528710     0.06200
H3303       H  0.65926709  0.96096996  0.08626749     0.06100
C3304       C  0.84080093  0.64300209  0.08059634     0.80200
N3305       N  0.84017839  0.66828804  0.08122963    -0.78100
C3306       C  0.86520814  0.69434372  0.08023909     0.82600
N3307       N  0.89105431  0.69489488  0.07861493    -0.78100
C3308       C  0.89205781  0.66977927  0.07790860     0.82700
N3309       N  0.86676600  0.64396296  0.07899954    -0.79800
C3310       C  0.87919794  0.99228470  0.93077265     0.03100
C3311       C  0.87934842  0.51380216  0.92071007    -0.13000
C3312       C  0.85533572  0.51111912  0.91106589     0.00600
C3313       C  0.83143777  0.98705987  0.91104475    -0.11600
C3314       C  0.82884310  0.96305182  0.92063925     0.03100
C3315       C  0.85264058  0.96584211  0.93062980    -0.11000
H3316       H  0.89956733  0.53444240  0.92082681     0.08700
H3317       H  0.81310013  0.98499092  0.90328477     0.06200
H3318       H  0.85046124  0.94740605  0.93830905     0.06100
C3319       C  0.71483896  0.66507713  0.90531148     0.03100
C3320       C  0.69496544  0.64238914  0.91652624    -0.13000
C3321       C  0.67487114  0.64593623  0.92704269     0.00600
C3322       C  0.67461172  0.67227648  0.92602733    -0.11600
C3323       C  0.69466288  0.69516152  0.91517485     0.03100
C3324       C  0.71438181  0.69131688  0.90463565    -0.11000
H3325       H  0.69525565  0.62209863  0.91713821     0.08700
H3326       H  0.65893156  0.67513755  0.93382109     0.06200
H3327       H  0.72963618  0.70891655  0.89604302     0.06100
C3328       C  0.71860530  0.85488825  0.91934633     0.80200
N3329       N  0.71858067  0.82933688  0.91766430    -0.78100
C3330       C  0.69315998  0.80357529  0.91699523     0.82600
N3331       N  0.66759562  0.80356984  0.91810807    -0.78100
C3332       C  0.66711033  0.82882274  0.91981847     0.82700
N3333       N  0.69275446  0.85441798  0.92034008    -0.79800
C3334       C  0.50791061  0.80872443  0.90988338     0.03100
C3335       C  0.50460284  0.82898673  0.92036526    -0.13000
C3336       C  0.52801538  0.84967683  0.93077204     0.00600
C3337       C  0.55445200  0.84964424  0.93096183    -0.11600
C3338       C  0.55790773  0.82940814  0.92067184     0.03100
C3339       C  0.53451222  0.80892592  0.91026132    -0.11000
H3340       H  0.98738075  0.83298279  0.91704840     0.08700
H3341       H  0.57234140  0.86540614  0.93917646     0.06200
H3342       H  0.53710174  0.79326768  0.90225145     0.06100
Zn3343     Zn  0.52964451  0.96390001  0.01229270     1.49700
Zn3344     Zn  0.56847594  0.53377986  0.01119752     1.49400
Zn3345     Zn  0.52885923  0.99770890  0.97622127     1.49100
Zn3346     Zn  0.99809573  0.00040594  0.01135639     1.49500
O3347       O  0.53069073  0.99909358  0.00278818    -1.84200
O3348       O  0.56606774  0.97379523  0.02666718    -0.74800
O3349       O  0.59186031  0.55798528  0.99001688    -0.74600
O3350       O  0.52695629  0.96093229  0.96697966    -0.74100
O3351       O  0.59434277  0.52259824  0.02497537    -0.74800
O3352       O  0.52637041  0.93701045  0.99182576    -0.74400
O3353       O  0.56718385  0.53265732  0.96602100    -0.75000
O3354       O  0.97312652  0.00116437  0.99131836    -0.74400
O3355       O  0.55911799  0.55934110  0.02705014    -0.75100
O3356       O  0.99517482  0.00003631  0.96610371    -0.74500
O3357       O  0.51084656  0.53411443  0.02896601    -0.75000
O3358       O  0.97222519  0.96471259  0.02601879    -0.74900
O3359       O  0.99564012  0.93973949  0.02614733    -0.74700
C3360       C  0.58878316  0.99786774  0.03044083     0.77100
C3361       C  0.58906603  0.55469880  0.97294842     0.77600
C3362       C  0.52581472  0.93880616  0.97464853     0.76600
C3363       C  0.97408755  0.00030441  0.97416918     0.76900
C3364       C  0.53518063  0.55626487  0.03300838     0.78100
C3365       C  0.97419023  0.94273404  0.03091483     0.77100
C3366       C  0.84628294  0.83043940  0.74322364     0.03100
C3367       C  0.84313357  0.80684207  0.75363577    -0.13000
C3368       C  0.86601092  0.81003282  0.76486206     0.00600
C3369       C  0.89157489  0.83721854  0.76591084    -0.11600
C3370       C  0.89469558  0.86087894  0.75565749     0.03100
C3371       C  0.87211687  0.85724651  0.74417528    -0.11000
H3372       H  0.82335563  0.78593575  0.75255183     0.08700
H3373       H  0.90930328  0.83990606  0.77456948     0.06200
H3374       H  0.87483049  0.87501937  0.73557265     0.06100
C3375       C  0.69767663  0.97661550  0.74035497     0.03100
C3376       C  0.72071454  0.99671661  0.75121875    -0.13000
C3377       C  0.72119033  0.51491880  0.76269503     0.00600
C3378       C  0.69483653  0.51520645  0.76328929    -0.11600
C3379       C  0.66789771  0.99717546  0.75032210     0.03100
C3380       C  0.67135249  0.97699189  0.73997100    -0.11000
H3381       H  0.74131631  0.99702625  0.75105867     0.08700
H3382       H  0.69294392  0.53074100  0.77185099     0.06200
H3383       H  0.65348195  0.96148265  0.73163845     0.06100
C3384       C  0.51441088  0.65893884  0.76528605     0.03100
C3385       C  0.53502719  0.68292522  0.75501979    -0.13000
C3386       C  0.55517983  0.68031260  0.74388773     0.00600
C3387       C  0.55503419  0.65376981  0.74352485    -0.11600
C3388       C  0.53489515  0.62997226  0.75368491     0.03100
C3389       C  0.51488610  0.63268102  0.76459452    -0.11000
H3390       H  0.53514037  0.70339797  0.75545341     0.08700
H3391       H  0.57053488  0.65147746  0.73515603     0.06200
H3392       H  0.99247786  0.61112639  0.76794923     0.06100
C3393       C  0.50603681  0.96967014  0.75032385     0.80200
N3394       N  0.50618031  0.99531514  0.75095175    -0.78100
C3395       C  0.53660128  0.52177649  0.75164620     0.82600
N3396       N  0.56178687  0.52094752  0.75185866    -0.78100
C3397       C  0.55745832  0.99529270  0.75109684     0.82700
N3398       N  0.53174826  0.96986345  0.75042503    -0.79800
Zn3399     Zn  0.89936584  0.69552003  0.82793603     1.49700
Zn3400     Zn  0.86686029  0.62665631  0.82900931     1.49400
Zn3401     Zn  0.86196556  0.66127057  0.86321174     1.49100
Zn3402     Zn  0.83010281  0.65971216  0.82638789     1.49500
O3403       O  0.86463439  0.66082398  0.83670884    -1.84200
O3404       O  0.92534676  0.68560617  0.81298961    -0.74800
O3405       O  0.86561045  0.60303053  0.85037043    -0.74600
O3406       O  0.89610917  0.69766643  0.87356145    -0.74100
O3407       O  0.90378769  0.63746649  0.81529025    -0.74800
O3408       O  0.92204614  0.72018120  0.84913997    -0.74400
O3409       O  0.86148100  0.62599509  0.87428022    -0.75000
O3410       O  0.80254767  0.65862730  0.84549437    -0.74400
O3411       O  0.83330922  0.60091463  0.81265633    -0.75100
O3412       O  0.82525236  0.66072912  0.87111459    -0.74500
O3413       O  0.80879584  0.62474802  0.81063623    -0.75000
O3414       O  0.84048926  0.69483345  0.81103624    -0.74900
O3415       O  0.88874808  0.71984368  0.81211133    -0.74700
C3416       C  0.92438871  0.66161526  0.80949547     0.77100
C3417       C  0.86344832  0.60506015  0.86733758     0.77600
C3418       C  0.91826643  0.71892834  0.86620877     0.76600
C3419       C  0.80372634  0.65963789  0.86267534     0.76900
C3420       C  0.81229974  0.60346002  0.80634287     0.78100
C3421       C  0.86462292  0.71683526  0.80656787     0.77100
C3422       C  0.70578389  0.68677403  0.59256829     0.03100
C3423       C  0.68150828  0.66493252  0.58323202    -0.13000
C3424       C  0.68422911  0.64481790  0.57225039     0.00600
C3425       C  0.71144652  0.64664940  0.57061935    -0.11600
C3426       C  0.73562863  0.66763410  0.58016433     0.03100
C3427       C  0.73273282  0.68768351  0.59104432    -0.11000
H3428       H  0.66030178  0.66298803  0.58487394     0.08700
H3429       H  0.71385075  0.63151492  0.56196332     0.06200
H3430       H  0.75154611  0.70389511  0.59840981     0.06100
C3431       C  0.53271732  0.84529472  0.57102409     0.03100
C3432       C  0.50655086  0.81851760  0.57110300    -0.13000
C3433       C  0.00262313  0.79660731  0.58191010     0.00600
C3434       C  0.52835841  0.79774973  0.59052861    -0.11600
C3435       C  0.55485152  0.82426738  0.59046749     0.03100
C3436       C  0.55687456  0.84797852  0.58063553    -0.11000
H3437       H  0.98665643  0.81879188  0.56513643     0.08700
H3438       H  0.52626080  0.77958933  0.59848394     0.06200
H3439       H  0.57710381  0.86859362  0.58063567     0.06100
C3440       C  0.88950315  0.99992651  0.57804532     0.03100
C3441       C  0.88317886  0.52140769  0.57546838    -0.13000
C3442       C  0.86222649  0.52432625  0.58523855     0.00600
C3443       C  0.84489198  0.00402534  0.59555018    -0.11600
C3444       C  0.84692266  0.97873897  0.59781584     0.03100
C3445       C  0.86938063  0.97683000  0.58889527    -0.11000
H3446       H  0.89904286  0.53953717  0.56744576     0.08700
H3447       H  0.82538237  0.50333003  0.60296751     0.06200
H3448       H  0.87146232  0.95763205  0.59054525     0.06100
C3449       C  0.89401377  0.68706690  0.58175240     0.80200
N3450       N  0.86857147  0.68748637  0.58135129    -0.78100
C3451       C  0.84252786  0.66240107  0.58231258     0.82600
N3452       N  0.84224456  0.63671762  0.58375864    -0.78100
C3453       C  0.86741685  0.63585547  0.58444782     0.82700
N3454       N  0.89323004  0.66114137  0.58336771    -0.79800
Zn3455     Zn  0.66449074  0.79387717  0.65919566     1.49700
Zn3456     Zn  0.69833391  0.82805450  0.69513744     1.49400
Zn3457     Zn  0.73383669  0.82722649  0.66017920     1.49100
Zn3458     Zn  0.70068710  0.86392690  0.65990542     1.49500
O3459       O  0.69923885  0.82821869  0.66859340    -1.84200
O3460       O  0.63879744  0.76875141  0.67987714    -0.74800
O3461       O  0.73310412  0.82704473  0.70520935    -0.74600
O3462       O  0.72316739  0.79108830  0.64573302    -0.74100
O3463       O  0.66211709  0.79276742  0.70462382    -0.74800
O3464       O  0.67495393  0.76899334  0.64349501    -0.74400
O3465       O  0.75843370  0.82815245  0.68117991    -0.75000
O3466       O  0.73734201  0.88833412  0.64562265    -0.74400
O3467       O  0.69994414  0.86439899  0.70523755    -0.75100
O3468       O  0.75916296  0.86181479  0.64441776    -0.74500
O3469       O  0.70131606  0.88889869  0.68059569    -0.75000
O3470       O  0.66614025  0.85478861  0.64374022    -0.74900
O3471       O  0.64169765  0.80638532  0.64329635    -0.74700
C3472       C  0.64066892  0.77101564  0.69707346     0.77100
C3473       C  0.75538151  0.82773896  0.69826559     0.77600
C3474       C  0.69913235  0.77046783  0.63980695     0.76600
C3475       C  0.75809350  0.88459982  0.64031925     0.76900
C3476       C  0.70123204  0.88670081  0.69775161     0.78100
C3477       C  0.64477824  0.83080583  0.63827320     0.77100
C3478       C  0.86261602  0.81293940  0.40811091     0.03100
C3479       C  0.88602981  0.83312206  0.41874735    -0.13000
C3480       C  0.88274011  0.85265986  0.42992664     0.00600
C3481       C  0.85592096  0.85185175  0.43054222    -0.11600
C3482       C  0.83243349  0.83177708  0.42004261     0.03100
C3483       C  0.83576509  0.81216344  0.40905382    -0.11000
H3484       H  0.90678467  0.83375811  0.41825926     0.08700
H3485       H  0.85336715  0.86694133  0.43915719     0.06200
H3486       H  0.81744197  0.79640207  0.40112377     0.06100
C3487       C  0.53386064  0.64408533  0.42439128     0.03100
C3488       C  0.55996664  0.67085962  0.42400996    -0.13000
C3489       C  0.56250497  0.69388121  0.41332029     0.00600
C3490       C  0.53872754  0.68997287  0.40285987    -0.11600
C3491       C  0.51242871  0.66339418  0.40314374     0.03100
C3492       C  0.51016626  0.64034102  0.41378836    -0.11000
H3493       H  0.57828719  0.67387724  0.43219079     0.08700
H3494       H  0.54060816  0.70775336  0.39457970     0.06200
H3495       H  0.98969879  0.62048633  0.41728786     0.06100
C3496       C  0.72018937  0.51570581  0.40675065     0.03100
C3497       C  0.70021924  0.51892777  0.41753923    -0.13000
C3498       C  0.67953555  0.49542753  0.42783237     0.00600
C3499       C  0.68120433  0.97030972  0.42795013    -0.11600
C3500       C  0.70102761  0.96711530  0.41704695     0.03100
C3501       C  0.72164297  0.99098123  0.40695380    -0.11000
H3502       H  0.70056171  0.53955049  0.41777314     0.08700
H3503       H  0.66481862  0.95171363  0.43539591     0.06200
H3504       H  0.73676088  0.98856336  0.39829080     0.06100
C3505       C  0.67105914  0.80383169  0.41478449     0.80200
N3506       N  0.69672015  0.80421618  0.41686663    -0.78100
C3507       C  0.72218552  0.82967209  0.41839160     0.82600
N3508       N  0.72181121  0.85508921  0.41781162    -0.78100
C3509       C  0.69643314  0.85534216  0.41582650     0.82700
N3510       N  0.67105320  0.82955014  0.41439684    -0.79800
Zn3511     Zn  0.53390169  0.99676473  0.47447521     1.49700
Zn3512     Zn  0.53305585  0.53364603  0.50942401     1.49400
Zn3513     Zn  0.99863587  0.96399068  0.51204345     1.49100
Zn3514     Zn  0.56909897  0.99819972  0.51019043     1.49500
O3515       O  0.53356232  0.99670284  0.50105508    -1.84200
O3516       O  0.53215386  0.53410251  0.46432483    -0.74800
O3517       O  0.99602751  0.52035115  0.52814381    -0.74600
O3518       O  0.97317493  0.93849926  0.49182719    -0.74100
O3519       O  0.53135291  0.55770569  0.48878726    -0.74800
O3520       O  0.99653054  0.96117177  0.46685185    -0.74400
O3521       O  0.97458771  0.97501281  0.52758067    -0.75000
O3522       O  0.56028393  0.96171210  0.52415900    -0.74400
O3523       O  0.56896100  0.55927874  0.52400148    -0.75100
O3524       O  0.51197783  0.93726872  0.52511792    -0.74500
O3525       O  0.59316125  0.53507966  0.52423790    -0.75000
O3526       O  0.59595084  0.00214495  0.48975417    -0.74900
O3527       O  0.57093079  0.99917713  0.46498205    -0.74700
C3528       C  0.53136862  0.55540676  0.47166173     0.77100
C3529       C  0.97784136  0.99931036  0.53284617     0.77600
C3530       C  0.97505529  0.93975401  0.47466171     0.76600
C3531       C  0.53647022  0.93976869  0.52924307     0.76900
C3532       C  0.59076577  0.55693250  0.52887093     0.78100
C3533       C  0.59371098  0.00169911  0.47258866     0.77100
C3534       C  0.86477425  0.52438791  0.25861933     0.03100
C3535       C  0.89138781  0.52505584  0.25627311    -0.13000
C3536       C  0.89459587  0.00547402  0.24948497     0.00600
C3537       C  0.87061570  0.98410258  0.23996287    -0.11600
C3538       C  0.84310564  0.98163610  0.24159513     0.03100
C3539       C  0.83972193  0.00093093  0.25299100    -0.11000
H3540       H  0.91093412  0.54185860  0.26275058     0.08700
H3541       H  0.87343385  0.96929872  0.23122904     0.06200
H3542       H  0.81845406  0.99888688  0.25458136     0.06100
C3543       C  0.69537220  0.68582790  0.24115329     0.03100
C3544       C  0.71818788  0.68717938  0.25152885    -0.13000
C3545       C  0.71529546  0.66205898  0.25993697     0.00600
C3546       C  0.68943502  0.63528114  0.25738693    -0.11600
C3547       C  0.66656957  0.63373973  0.24685799     0.03100
C3548       C  0.66970523  0.65913109  0.23888122    -0.11000
H3549       H  0.73789778  0.70794836  0.25340564     0.08700
H3550       H  0.68687283  0.61578604  0.26386622     0.06200
H3551       H  0.65211795  0.65805898  0.23075739     0.06100
C3552       C  0.50482842  0.81463947  0.25969161     0.03100
C3553       C  0.50428850  0.84075284  0.25788863    -0.13000
C3554       C  0.52429338  0.86311843  0.24668870     0.00600
C3555       C  0.54419162  0.85879801  0.23666266    -0.11600
C3556       C  0.54536876  0.83304060  0.23848464     0.03100
C3557       C  0.52550930  0.81091332  0.24996528    -0.11000
H3558       H  0.98998681  0.84579418  0.26588604     0.08700
H3559       H  0.55895168  0.87558035  0.22744094     0.06200
H3560       H  0.52655068  0.79112503  0.25164316     0.06100
C3561       C  0.55492444  0.52698846  0.24375906     0.80200
N3562       N  0.52915587  0.52673716  0.24477970    -0.78100
C3563       C  0.49875272  0.99864454  0.24806464     0.82600
N3564       N  0.49842604  0.97292764  0.24689809    -0.78100
C3565       C  0.52360100  0.97216267  0.24582312     0.82700
N3566       N  0.54939059  0.99764173  0.24604501    -0.79800
Zn3567     Zn  0.73184333  0.83497898  0.17742855     1.49700
Zn3568     Zn  0.69476983  0.86714057  0.17849918     1.49400
Zn3569     Zn  0.69594605  0.83418926  0.14243089     1.49100
Zn3570     Zn  0.66210287  0.79787895  0.17794190     1.49500
O3571       O  0.69609263  0.83347860  0.16899467    -1.84200
O3572       O  0.75576733  0.87016727  0.19291995    -0.74800
O3573       O  0.69457829  0.89242921  0.15829452    -0.74600
O3574       O  0.73177591  0.83457982  0.13222454    -0.74100
O3575       O  0.72950595  0.89215980  0.19417676    -0.74800
O3576       O  0.75649181  0.83542893  0.15664481    -0.74400
O3577       O  0.69560897  0.87014782  0.13321194    -0.75000
O3578       O  0.63882484  0.77220048  0.15716683    -0.74400
O3579       O  0.65895726  0.85476953  0.19359771    -0.75100
O3580       O  0.66042498  0.79827027  0.13262908    -0.74500
O3581       O  0.63520394  0.80650050  0.19277976    -0.75000
O3582       O  0.67463251  0.77521493  0.19390981    -0.74900
O3583       O  0.72289970  0.80035924  0.19281091    -0.74700
C3584       C  0.75192419  0.89062871  0.19864462     0.77100
C3585       C  0.69503245  0.89121593  0.14112963     0.77600
C3586       C  0.75383589  0.83498514  0.13952428     0.76600
C3587       C  0.64028481  0.77528273  0.14006018     0.76900
C3588       C  0.63733876  0.83032629  0.19810471     0.78100
C3589       C  0.69940240  0.77867034  0.19838619     0.77100
Zn3590     Zn  0.86574140  0.70361706  0.32516501     1.49700
Zn3591     Zn  0.86566409  0.66787351  0.36060238     1.49400
Zn3592     Zn  0.82958442  0.63394532  0.32554379     1.49100
Zn3593     Zn  0.89934682  0.66770506  0.32473736     1.49500
O3594       O  0.86508609  0.66833827  0.33403050    -1.84200
O3595       O  0.86608959  0.72803767  0.34607396    -0.74800
O3596       O  0.82975803  0.63273337  0.37076523    -0.74600
O3597       O  0.80480373  0.64536728  0.31094403    -0.74100
O3598       O  0.86725396  0.70412080  0.37048133    -0.74800
O3599       O  0.83063710  0.69368846  0.30930529    -0.74400
O3600       O  0.80552389  0.60862233  0.34638704    -0.75000
O3601       O  0.88758333  0.63263720  0.30919906    -0.74400
O3602       O  0.90076294  0.66616658  0.37006934    -0.75100
O3603       O  0.83915046  0.60964209  0.30909533    -0.74500
O3604       O  0.92379397  0.66610944  0.34513748    -0.75000
O3605       O  0.92454650  0.70292941  0.30925812    -0.74900
O3606       O  0.90180730  0.72860197  0.31037918    -0.74700
C3607       C  0.86717168  0.72591112  0.36319283     0.77100
C3608       C  0.80805351  0.61085058  0.36354106     0.77600
C3609       C  0.80830236  0.66952361  0.30511432     0.76600
C3610       C  0.86310473  0.61191541  0.30396403     0.76900
C3611       C  0.92188694  0.66551952  0.36230401     0.78100
C3612       C  0.92272652  0.72524749  0.30495821     0.77100
C3613       C  0.54859192  0.94346278  0.25041649    -0.26300
C3614       C  0.52324426  0.94391237  0.24528612    -0.14400
C3615       C  0.49814520  0.91738736  0.24035501     0.36200
C3616       C  0.49917366  0.89136095  0.24074315    -0.25800
C3617       C  0.52462785  0.89119215  0.24580171    -0.15000
C3618       C  0.54948809  0.91759371  0.25087631     0.37300
N3619       N  0.57548061  0.91868315  0.25749038    -0.89300
H3620       H  0.56785548  0.96333285  0.25459373     0.18400
H3621       H  0.98473205  0.87576256  0.23377578     0.18400
N3622       N  0.97845367  0.92260267  0.22936612    -0.88300
H3623       H  0.58480606  0.91264337  0.24719603     0.35800
H3624       H  0.56999440  0.90402761  0.26824579     0.40900
H3625       H  0.96270449  0.90176454  0.22519688     0.40500
H3626       H  0.98642625  0.93522769  0.21764891     0.35400
C3627       C  0.96182432  0.77622110  0.30024010    -0.26300
C3628       C  0.94536585  0.74792269  0.29343294    -0.14400
C3629       C  0.94997429  0.74193245  0.27556362     0.36200
C3630       C  0.97035501  0.76478813  0.26461256    -0.25800
C3631       C  0.98647503  0.79332310  0.27132021    -0.15000
C3632       C  0.98266702  0.79878181  0.28947690     0.37300
N3633       N  0.00039107  0.82709397  0.29715490    -0.89300
H3634       H  0.95866500  0.78077693  0.31406320     0.18400
H3635       H  0.97326744  0.76045694  0.25069795     0.18400
N3636       N  0.93305400  0.71300641  0.26838409    -0.88300
H3637       H  0.98664966  0.83444930  0.30194477     0.35800
H3638       H  0.01162868  0.82505236  0.30819620     0.40900
H3639       H  0.93903931  0.69960428  0.27536726     0.40500
H3640       H  0.93828414  0.71253052  0.25481962     0.35400
C3641       C  0.58528012  0.80688124  0.20781793    -0.26300
C3642       C  0.61416180  0.82978393  0.20961265    -0.14400
C3643       C  0.62041235  0.85247144  0.22196987     0.36200
C3644       C  0.59756773  0.85262430  0.23140666    -0.25800
C3645       C  0.56861697  0.83044182  0.22904391    -0.15000
C3646       C  0.56238080  0.80707563  0.21733211     0.37300
N3647       N  0.53281726  0.78418059  0.21472403    -0.89300
H3648       H  0.58040509  0.78933295  0.19846321     0.18400
H3649       H  0.60234080  0.87024050  0.24069510     0.18400
N3650       N  0.64994098  0.87520271  0.22499801    -0.88300
H3651       H  0.53195610  0.76865721  0.20567657     0.35800
H3652       H  0.52138659  0.79337969  0.20869624     0.40900
H3653       H  0.66115742  0.86563009  0.23082726     0.40500
H3654       H  0.65070526  0.89030430  0.23436817     0.35400
C3655       C  0.60813073  0.55558456  0.23665180    -0.26300
C3656       C  0.58313579  0.55493049  0.24369542    -0.14400
C3657       C  0.58586173  0.58079234  0.25102179     0.36200
C3658       C  0.61327111  0.60605299  0.25181905    -0.25800
C3659       C  0.63826664  0.60634472  0.24536105    -0.15000
C3660       C  0.63546049  0.58097480  0.23723818     0.37300
N3661       N  0.65967818  0.58063096  0.22892635    -0.89300
H3662       H  0.60645322  0.53626049  0.23051886     0.18400
H3663       H  0.61510686  0.62556673  0.25778462     0.18400
N3664       N  0.56109814  0.58149197  0.25812265    -0.88300
H3665       H  0.67550780  0.58487652  0.23872365     0.35800
H3666       H  0.66850698  0.59716485  0.21918911     0.40900
H3667       H  0.55890367  0.59747184  0.25110921     0.40500
H3668       H  0.56520721  0.58766759  0.27169582     0.35400
C3669       C  0.72088163  0.72647985  0.21943637    -0.26300
C3670       C  0.69845350  0.71201874  0.23202171    -0.14400
C3671       C  0.67787232  0.72113989  0.23462885     0.36200
C3672       C  0.67899335  0.74333433  0.22365600    -0.25800
C3673       C  0.70066058  0.75699142  0.21042611    -0.15000
C3674       C  0.72227201  0.74883069  0.20864874     0.37300
N3675       N  0.74498821  0.76167707  0.19544308    -0.89300
H3676       H  0.73675994  0.71951970  0.21745109     0.18400
H3677       H  0.66278772  0.74992001  0.22538044     0.18400
N3678       N  0.65581395  0.70760982  0.24828377    -0.88300
H3679       H  0.75817096  0.78377626  0.19836100     0.35800
H3680       H  0.73557361  0.75936965  0.18266652     0.40900
H3681       H  0.64235894  0.71680239  0.24844377     0.40500
H3682       H  0.66634953  0.71223303  0.26083512     0.35400
C3683       C  0.76801883  0.67898637  0.26522363    -0.26300
C3684       C  0.73920215  0.66415397  0.27159421    -0.14400
C3685       C  0.73371669  0.65215879  0.28913605     0.36200
C3686       C  0.75675631  0.65445663  0.29972993    -0.25800
C3687       C  0.78550086  0.66906738  0.29335805    -0.15000
C3688       C  0.79123825  0.68144071  0.27576572     0.37300
N3689       N  0.81988450  0.69582655  0.26789419    -0.89300
H3690       H  0.77248758  0.68823668  0.25173312     0.18400
H3691       H  0.75217023  0.64499725  0.31316992     0.18400
N3692       N  0.70488591  0.63834951  0.29647380    -0.88300
H3693       H  0.81920042  0.68409261  0.25637839     0.35800
H3694       H  0.83537747  0.69542716  0.27640457     0.40900
H3695       H  0.70531688  0.64942075  0.30824499     0.40500
H3696       H  0.69910284  0.61702983  0.30005126     0.35400
C3697       C  0.92323431  0.98106053  0.25428248    -0.26300
C3698       C  0.92277485  0.00609668  0.24864987    -0.14400
C3699       C  0.94644247  0.52661493  0.23785602     0.36200
C3700       C  0.97204550  0.52504780  0.23843538    -0.25800
C3701       C  0.97500940  0.00385142  0.24768032    -0.15000
C3702       C  0.94897789  0.97968872  0.25408817     0.37300
N3703       N  0.94870382  0.95399577  0.26070171    -0.89300
H3704       H  0.90330394  0.96251721  0.25915046     0.18400
H3705       H  0.99181574  0.54309654  0.23300167     0.18400
N3706       N  0.94772963  0.55198448  0.22976862    -0.88300
H3707       H  0.92769948  0.93812940  0.26453551     0.35800
H3708       H  0.96143879  0.95981145  0.27243208     0.40900
H3709       H  0.92721257  0.55008480  0.22885039     0.40500
H3710       H  0.95473506  0.55327284  0.21642579     0.35400
C3711       C  0.77838178  0.94168922  0.20989187    -0.26300
C3712       C  0.77407580  0.91329201  0.21058916    -0.14400
C3713       C  0.79130412  0.90712522  0.22242748     0.36200
C3714       C  0.81314690  0.92970003  0.23271921    -0.25800
C3715       C  0.81813230  0.95828537  0.23154937    -0.15000
C3716       C  0.80043094  0.96433362  0.22010622     0.37300
N3717       N  0.80550368  0.99354649  0.21844459    -0.89300
H3718       H  0.76516745  0.94647123  0.20084806     0.18400
H3719       H  0.82650557  0.92501527  0.24170324     0.18400
N3720       N  0.78646840  0.87798399  0.22407748    -0.88300
H3721       H  0.79055427  0.99426455  0.20948657     0.35800
H3722       H  0.82403490  0.50441007  0.20994555     0.40900
H3723       H  0.76571477  0.86505687  0.22958533     0.40500
H3724       H  0.80120153  0.87727757  0.23321451     0.35400
C3725       C  0.85028115  0.56188185  0.26407810    -0.26300
C3726       C  0.86333812  0.54612309  0.27049273    -0.14400
C3727       C  0.87568109  0.55183128  0.28799921     0.36200
C3728       C  0.87560141  0.57382337  0.29842564    -0.25800
C3729       C  0.86267707  0.58961336  0.29201285    -0.15000
C3730       C  0.84993268  0.58372934  0.27455169     0.37300
N3731       N  0.83721855  0.59979687  0.26680563    -0.89300
H3732       H  0.84095880  0.55772302  0.25060844     0.18400
H3733       H  0.88519926  0.57833190  0.31182725     0.18400
N3734       N  0.88781943  0.53494450  0.29524008    -0.88300
H3735       H  0.84917546  0.61034278  0.25523213     0.35800
H3736       H  0.83905392  0.61619946  0.27538250     0.40900
H3737       H  0.87084350  0.51342431  0.29647317     0.40500
H3738       H  0.89604825  0.54195292  0.30824432     0.35400
C3739       C  0.67639447  0.91479530  0.40828375    -0.31700
C3740       C  0.70020112  0.93877725  0.41639888    -0.14400
C3741       C  0.72239822  0.93515215  0.42437813     0.36200
C3742       C  0.72063862  0.90795019  0.42387857    -0.25800
C3743       C  0.69692826  0.88373628  0.41570155    -0.15000
C3744       C  0.67457730  0.88733459  0.40768984     0.37300
N3745       N  0.65037206  0.86338810  0.39877908    -0.89300
H3746       H  0.65930938  0.91763767  0.40223547     0.18400
H3747       H  0.73785393  0.90570711  0.43027333     0.18400
N3748       N  0.74649215  0.95849282  0.43363264    -0.88300
H3749       H  0.65851036  0.85802895  0.38745936     0.35800
H3750       H  0.63572312  0.86961682  0.39391868     0.40900
H3751       H  0.73832779  0.96603985  0.44384716     0.40500
H3752       H  0.75809430  0.97543082  0.42448836     0.35400
C3753       C  0.76337044  0.56200775  0.36655367    -0.26300
C3754       C  0.78535640  0.58716452  0.37507270    -0.14400
C3755       C  0.78492126  0.58892241  0.39420791     0.36200
C3756       C  0.76299517  0.56550973  0.40411264    -0.25800
C3757       C  0.74158071  0.54029325  0.39548949    -0.15000
C3758       C  0.74142347  0.53884577  0.37638902     0.37300
N3759       N  0.71924744  0.51455701  0.36642413    -0.89300
H3760       H  0.76297008  0.56019142  0.35195994     0.18400
H3761       H  0.76294569  0.56664863  0.41873792     0.18400
N3762       N  0.80649942  0.61430837  0.40361247    -0.88300
H3763       H  0.70876250  0.52250272  0.35811156     0.35800
H3764       H  0.70309549  0.49925613  0.37485541     0.40900
H3765       H  0.82626371  0.61448078  0.40266309     0.40500
H3766       H  0.80168567  0.61287330  0.41740899     0.35400
C3767       C  0.64167265  0.00746945  0.43249467    -0.26300
C3768       C  0.66126168  0.00044938  0.44073289    -0.14400
C3769       C  0.65899215  0.49799340  0.45792341     0.36200
C3770       C  0.63853429  0.99768245  0.46971001    -0.25800
C3771       C  0.61781195  0.00321988  0.46141497    -0.15000
C3772       C  0.62013436  0.00920523  0.44261586     0.37300
N3773       N  0.60080267  0.01711130  0.43383811    -0.89300
H3774       H  0.64301288  0.01128634  0.41803608     0.18400
H3775       H  0.63845188  0.49846848  0.48256750     0.18400
N3776       N  0.68203854  0.49685806  0.46741049    -0.88300
H3777       H  0.59324435  0.50339937  0.41701675     0.35800
H3778       H  0.60516964  0.03718992  0.43910931     0.40900
H3779       H  0.70190681  0.00864189  0.46598239     0.40500
H3780       H  0.67937851  0.97208714  0.46458638     0.35400
C3781       C  0.61705287  0.77450457  0.41819032    -0.26300
C3782       C  0.64328011  0.77556471  0.41351836    -0.14400
C3783       C  0.64256034  0.74944059  0.40834093     0.36200
C3784       C  0.61594896  0.72307965  0.40846509    -0.25800
C3785       C  0.58998262  0.72218118  0.41331367    -0.15000
C3786       C  0.59049610  0.74807995  0.41829555     0.37300
N3787       N  0.56414217  0.74730049  0.42387957    -0.89300
H3788       H  0.61732092  0.79424613  0.42228599     0.18400
H3789       H  0.61534606  0.70309450  0.40453945     0.18400
N3790       N  0.66865528  0.74965265  0.40278117    -0.88300
H3791       H  0.56820573  0.76816461  0.42715332     0.35800
H3792       H  0.55705087  0.73493682  0.43575690     0.40900
H3793       H  0.67564730  0.76154944  0.39073326     0.40500
H3794       H  0.66438066  0.72861106  0.39981152     0.35400
C3795       C  0.99179575  0.66691701  0.37698173    -0.26300
C3796       C  0.98722942  0.66152907  0.39558824    -0.14400
C3797       C  0.96084744  0.65697556  0.40320535     0.36200
C3798       C  0.93988808  0.65813253  0.39214543    -0.25800
C3799       C  0.94454819  0.66389792  0.37348046    -0.15000
C3800       C  0.97091816  0.66819837  0.36591294     0.37300
N3801       N  0.97710346  0.67463890  0.34708481    -0.89300
H3802       H  0.51062024  0.66729620  0.36717479     0.18400
H3803       H  0.91991483  0.65477841  0.39830487     0.18400
N3804       N  0.95523942  0.65238135  0.42220693    -0.88300
H3805       H  0.98083541  0.65873186  0.34144315     0.35800
H3806       H  0.99626246  0.69474061  0.34592145     0.40900
H3807       H  0.97212239  0.66977262  0.42915893     0.40500
H3808       H  0.95492383  0.63318701  0.42592182     0.35400
C3809       C  0.52385866  0.57188945  0.44144876    -0.26300
C3810       C  0.53067517  0.57791200  0.45991829    -0.14400
C3811       C  0.53745516  0.60555066  0.46662057     0.36200
C3812       C  0.53779477  0.62648519  0.45483617    -0.25800
C3813       C  0.53146828  0.62056304  0.43639905    -0.15000
C3814       C  0.52426705  0.59293511  0.42962231     0.37300
N3815       N  0.51808602  0.58659974  0.41071400    -0.89300
H3816       H  0.51849286  0.55076694  0.43612363     0.18400
H3817       H  0.54330068  0.64768923  0.46011712     0.18400
N3818       N  0.54470114  0.61284561  0.48527166    -0.88300
H3819       H  0.51310256  0.56526335  0.40792773     0.35800
H3820       H  0.53708831  0.60029674  0.40356033     0.40900
H3821       H  0.53007261  0.61863824  0.49066224     0.40500
H3822       H  0.56559897  0.63103464  0.48595910     0.35400
C3823       C  0.77898387  0.80626426  0.42540121    -0.26300
C3824       C  0.80447144  0.83159885  0.42024803    -0.14400
C3825       C  0.80299597  0.85637364  0.41503939     0.36200
C3826       C  0.77609772  0.85542563  0.41489757    -0.25800
C3827       C  0.75032416  0.82997699  0.41979985    -0.15000
C3828       C  0.75201830  0.80529857  0.42541920     0.37300
N3829       N  0.72664674  0.77940260  0.43148760    -0.89300
H3830       H  0.78007366  0.78720747  0.42960002     0.18400
H3831       H  0.77541213  0.87459883  0.41049109     0.18400
N3832       N  0.82869251  0.88227536  0.40933550    -0.88300
H3833       H  0.73040009  0.77513382  0.44474387     0.35800
H3834       H  0.72392263  0.76211321  0.42336625     0.40900
H3835       H  0.83143601  0.89935561  0.41767452     0.40500
H3836       H  0.82531559  0.88706636  0.39612741     0.35400
C3837       C  0.87633024  0.77470847  0.40346929    -0.26300
C3838       C  0.86578760  0.79219465  0.39623027    -0.14400
C3839       C  0.85739798  0.78895069  0.37791715     0.36200
C3840       C  0.85841742  0.76753788  0.36740690    -0.25800
C3841       C  0.86792478  0.74918736  0.37474752    -0.15000
C3842       C  0.87769232  0.75335629  0.39292532     0.37300
N3843       N  0.88904574  0.73608264  0.40063799    -0.89300
H3844       H  0.88305615  0.77739489  0.41751065     0.18400
H3845       H  0.85128537  0.76505644  0.35345377     0.18400
N3846       N  0.84811100  0.80761453  0.36987211    -0.88300
H3847       H  0.89479252  0.74160521  0.41416355     0.35800
H3848       H  0.90831498  0.74135176  0.39377552     0.40900
H3849       H  0.82705691  0.79457365  0.36479379     0.40500
H3850       H  0.86186868  0.81844942  0.35898135     0.35400
C3851       C  0.95297394  0.91931427  0.44450667    -0.26300
C3852       C  0.95172775  0.91618394  0.46345901    -0.14400
C3853       C  0.92779040  0.89111950  0.47120522     0.36200
C3854       C  0.90572392  0.87058097  0.45990487    -0.25800
C3855       C  0.90717428  0.87408033  0.44110664    -0.15000
C3856       C  0.93101381  0.89872862  0.43336411     0.37300
N3857       N  0.93289228  0.90393693  0.41426928    -0.89300
H3858       H  0.97087843  0.93824086  0.43821170     0.18400
H3859       H  0.88721930  0.85165162  0.46577254     0.18400
N3860       N  0.92567532  0.88653216  0.49043935    -0.88300
H3861       H  0.91425914  0.90445821  0.41011312     0.35800
H3862       H  0.93324862  0.88667105  0.40774498     0.40900
H3863       H  0.94232489  0.88246370  0.49430581     0.40500
H3864       H  0.90611724  0.86786850  0.49384679     0.35400
C3865       C  0.88614586  0.57624388  0.59396749    -0.26300
C3866       C  0.86287839  0.55243562  0.58543417    -0.14400
C3867       C  0.84062266  0.55567375  0.57738589     0.36200
C3868       C  0.84253500  0.58303307  0.57734812    -0.25800
C3869       C  0.86629873  0.60733414  0.58541535    -0.15000
C3870       C  0.88794370  0.60347588  0.59428187     0.37300
N3871       N  0.91123900  0.62620786  0.60439250    -0.89300
H3872       H  0.90290639  0.57352262  0.60062389     0.18400
H3873       H  0.82549675  0.58530243  0.57071475     0.18400
N3874       N  0.81633123  0.53132570  0.56898587    -0.88300
H3875       H  0.90242691  0.63438155  0.61379007     0.35800
H3876       H  0.92494256  0.64277982  0.59561000     0.40900
H3877       H  0.81555094  0.53662512  0.55544943     0.40500
H3878       H  0.79733931  0.52819363  0.57529362     0.35400
C3879       C  0.79379615  0.93659531  0.63566236    -0.26300
C3880       C  0.78183324  0.90784419  0.62965461    -0.14400
C3881       C  0.79240782  0.90204122  0.61362734     0.36200
C3882       C  0.81367478  0.92545177  0.60342782    -0.25800
C3883       C  0.82537880  0.95439663  0.60930561    -0.15000
C3884       C  0.81590378  0.95972994  0.62595999     0.37300
N3885       N  0.82916904  0.98850567  0.63336653    -0.89300
H3886       H  0.78630903  0.94110851  0.64821668     0.18400
H3887       H  0.82078683  0.92107564  0.59070060     0.18400
N3888       N  0.78073201  0.87262892  0.60737463    -0.88300
H3889       H  0.81288537  0.99390660  0.63532779     0.35800
H3890       H  0.83789598  0.98819199  0.64600413     0.40900
H3891       H  0.78750965  0.86197057  0.61642417     0.40500
H3892       H  0.78969824  0.87233298  0.59487223     0.35400
C3893       C  0.94136361  0.01873167  0.57024267    -0.26300
C3894       C  0.91202306  0.99774822  0.56752456    -0.14400
C3895       C  0.90457448  0.97720959  0.55347252     0.36200
C3896       C  0.92648176  0.97797866  0.54260286    -0.25800
C3897       C  0.95579557  0.99934791  0.54504115    -0.15000
C3898       C  0.96323770  0.01989206  0.55914940     0.37300
N3899       N  0.99273501  0.04182378  0.56278363    -0.89300
H3900       H  0.94724722  0.03473152  0.58088809     0.18400
H3901       H  0.92040654  0.96224138  0.53177946     0.18400
N3902       N  0.87491757  0.95631966  0.54931141    -0.88300
H3903       H  0.00080610  0.05587539  0.55170439     0.35800
H3904       H  0.00519571  0.03171086  0.56470905     0.40900
H3905       H  0.86348751  0.96738694  0.54696927     0.40500
H3906       H  0.86569043  0.94241401  0.56036300     0.35400
C3907       C  0.97363212  0.74430807  0.57368334    -0.26300
C3908       C  0.97477668  0.76878624  0.58166210    -0.14400
C3909       C  0.94939879  0.76663010  0.58920774     0.36200
C3910       C  0.92338130  0.73974367  0.58891757    -0.25800
C3911       C  0.92216139  0.71489762  0.58124758    -0.15000
C3912       C  0.94766287  0.71756527  0.57318838     0.37300
N3913       N  0.94774025  0.69408583  0.56370216    -0.89300
H3914       H  0.99303314  0.74613555  0.56754595     0.18400
H3915       H  0.90404357  0.73811149  0.59500104     0.18400
N3916       N  0.95025222  0.79169268  0.59729050    -0.88300
H3917       H  0.93125661  0.68626177  0.55390506     0.35800
H3918       H  0.94378730  0.67750368  0.57280188     0.40900
H3919       H  0.96407112  0.79757477  0.60855605     0.40500
H3920       H  0.92973654  0.78654193  0.60209933     0.35400
C3921       C  0.61007784  0.80821442  0.61278082    -0.26300
C3922       C  0.62322172  0.83086010  0.62544382    -0.14400
C3923       C  0.61523624  0.85260371  0.62564894     0.36200
C3924       C  0.59358004  0.85066293  0.61373936    -0.25800
C3925       C  0.57974962  0.82739786  0.60151977    -0.15000
C3926       C  0.58877551  0.80649362  0.60075428     0.37300
N3927       N  0.57662194  0.78365867  0.58760093    -0.89300
H3928       H  0.61649015  0.79174533  0.61211499     0.18400
H3929       H  0.58686855  0.86689665  0.61448240     0.18400
N3930       N  0.62818431  0.87604593  0.63835687    -0.88300
H3931       H  0.56726369  0.76374853  0.59444388     0.35800
H3932       H  0.59365207  0.78521220  0.57965849     0.40900
H3933       H  0.61157138  0.87540831  0.64629347     0.40500
H3934       H  0.63783824  0.89561058  0.63111571     0.35400
C3935       C  0.51523609  0.90231024  0.55343904    -0.26300
C3936       C  0.53688018  0.91659480  0.54029137    -0.14400
C3937       C  0.55785045  0.90793432  0.53767773     0.36200
C3938       C  0.55654266  0.88499017  0.54802337    -0.25800
C3939       C  0.53456149  0.87043871  0.56095204    -0.15000
C3940       C  0.51408231  0.87960419  0.56385235     0.37300
N3941       N  0.49239191  0.86624540  0.57762971    -0.89300
H3942       H  0.49922124  0.90898101  0.55578579     0.18400
H3943       H  0.57233590  0.87804898  0.54563235     0.18400
N3944       N  0.57982826  0.92161240  0.52410074    -0.88300
H3945       H  0.47192060  0.85777671  0.57154801     0.35800
H3946       H  0.49491748  0.88243053  0.58671378     0.40900
H3947       H  0.57767778  0.90560120  0.51498997     0.40500
H3948       H  0.60016002  0.93013768  0.53037742     0.35400
C3949       C  0.76224265  0.64083754  0.58484954    -0.26300
C3950       C  0.76323036  0.66687865  0.57982192    -0.14400
C3951       C  0.79032305  0.69125489  0.57502828     0.36200
C3952       C  0.81570061  0.68926868  0.57634603    -0.25800
C3953       C  0.81483058  0.66324819  0.58152736    -0.15000
C3954       C  0.78752993  0.63868368  0.58563771     0.37300
N3955       N  0.78518214  0.61154037  0.59089501    -0.89300
H3956       H  0.74159829  0.62198956  0.58845977     0.18400
H3957       H  0.83625304  0.70824587  0.57280355     0.18400
N3958       N  0.79299766  0.71803458  0.56835845    -0.88300
H3959       H  0.77127800  0.59556943  0.58176021     0.35800
H3960       H  0.77561456  0.60596011  0.60369163     0.40900
H3961       H  0.77271219  0.71639158  0.56646532     0.40500
H3962       H  0.80223956  0.72170342  0.55547873     0.35400
C3963       C  0.71661808  0.71407019  0.62168432    -0.26300
C3964       C  0.70297299  0.70778788  0.60464353    -0.14400
C3965       C  0.68733021  0.72189127  0.59941754     0.36200
C3966       C  0.68527525  0.74133938  0.61146045    -0.25800
C3967       C  0.69955723  0.74798613  0.62823544    -0.15000
C3968       C  0.71532780  0.73418391  0.63341808     0.37300
N3969       N  0.72974395  0.74045978  0.65067973    -0.89300
H3970       H  0.72824301  0.70307520  0.62595482     0.18400
H3971       H  0.67348358  0.75229954  0.60744575     0.18400
N3972       N  0.67440738  0.71720384  0.58173799    -0.88300
H3973       H  0.74060283  0.72866587  0.65239484     0.35800
H3974       H  0.71369806  0.73321258  0.66066011     0.40900
H3975       H  0.69127324  0.72521947  0.57227930     0.40500
H3976       H  0.66375970  0.72920691  0.58005851     0.35400
C3977       C  0.63017478  0.57196652  0.55164635    -0.26300
C3978       C  0.61373965  0.57973303  0.54038057    -0.14400
C3979       C  0.61948114  0.60884657  0.54043478     0.36200
C3980       C  0.64195405  0.62953794  0.55143264    -0.25800
C3981       C  0.65882459  0.62181930  0.56229619    -0.15000
C3982       C  0.65229268  0.59252792  0.56279132     0.37300
N3983       N  0.66799038  0.58372592  0.57474025    -0.89300
H3984       H  0.62548279  0.54958793  0.55196202     0.18400
H3985       H  0.64699591  0.65202777  0.55107054     0.18400
N3986       N  0.60307993  0.61753363  0.52903951    -0.88300
H3987       H  0.66058400  0.56148457  0.57344097     0.35800
H3988       H  0.66340080  0.58697283  0.58799718     0.40900
H3989       H  0.60793176  0.61548953  0.51561374     0.40500
H3990       H  0.60970536  0.63950402  0.53097425     0.35400
C3991       C  0.55969057  0.60152387  0.75910919    -0.26300
C3992       C  0.53503359  0.60223100  0.75292685    -0.14400
C3993       C  0.51135589  0.57674047  0.74572334     0.36200
C3994       C  0.51250418  0.55096753  0.74530897    -0.25800
C3995       C  0.53697039  0.54995796  0.75180386    -0.15000
C3996       C  0.56089478  0.57570309  0.75865449     0.37300
N3997       N  0.58619011  0.57571542  0.76557683    -0.89300
H3998       H  0.57801703  0.62110120  0.76453013     0.18400
H3999       H  0.99095156  0.52918873  0.73456488     0.18400
N4000       N  0.98172637  0.57336025  0.73192932    -0.88300
H4001       H  0.58900558  0.58243726  0.77906183     0.35800
H4002       H  0.60426985  0.59102484  0.75826605     0.40900
H4003       H  0.98935078  0.58925977  0.72179153     0.40500
H4004       H  0.97051065  0.57850156  0.74146623     0.35400
C4005       C  0.57814182  0.69831528  0.71370981    -0.26300
C4006       C  0.57581504  0.70444417  0.73190044    -0.14400
C4007       C  0.59450449  0.73272305  0.73846967     0.36200
C4008       C  0.61506391  0.75416371  0.72685658    -0.25800
C4009       C  0.61768852  0.74794497  0.70867664    -0.15000
C4010       C  0.59892419  0.71952439  0.70216706     0.37300
N4011       N  0.60147360  0.71164974  0.68404031    -0.89300
H4012       H  0.56400434  0.67663556  0.70845219     0.18400
H4013       H  0.62931028  0.77572890  0.73222240     0.18400
N4014       N  0.59350633  0.73948962  0.75708412    -0.88300
H4015       H  0.58139433  0.70405483  0.67759834     0.35800
H4016       H  0.60590839  0.69449687  0.68463749     0.40900
H4017       H  0.58937021  0.75681458  0.75762471     0.40500
H4018       H  0.61404111  0.74646912  0.76276391     0.35400
C4019       C  0.95301037  0.67531338  0.78104826    -0.26300
C4020       C  0.94716004  0.66160131  0.79798423    -0.14400
C4021       C  0.96187702  0.64674988  0.80324144     0.36200
C4022       C  0.98229893  0.64603353  0.79144153    -0.25800
C4023       C  0.98782266  0.65920343  0.77424059    -0.15000
C4024       C  0.97258330  0.67366054  0.76893078     0.37300
N4025       N  0.97612995  0.68563638  0.75104035    -0.89300
H4026       H  0.94123433  0.68625016  0.77694389     0.18400
H4027       H  0.49717612  0.63745830  0.79895531     0.18400
N4028       N  0.95610419  0.63257692  0.82056971    -0.88300
H4029       H  0.96331787  0.69538566  0.74929260     0.35800
H4030       H  0.96832810  0.66832413  0.74189598     0.40900
H4031       H  0.96285297  0.64867505  0.83049090     0.40500
H4032       H  0.96857385  0.62244377  0.82234552     0.35400
C4033       C  0.61456847  0.97172435  0.75555776    -0.26300
C4034       C  0.63985626  0.99703211  0.75013123    -0.14400
C4035       C  0.64158641  0.52012318  0.74624155     0.36200
C4036       C  0.61477331  0.51927339  0.74611037    -0.25800
C4037       C  0.58554493  0.99529174  0.75084585    -0.15000
C4038       C  0.58755781  0.97061023  0.75602489     0.37300
N4039       N  0.56246715  0.94451768  0.76215926    -0.89300
H4040       H  0.61587029  0.95277352  0.75973995     0.18400
H4041       H  0.61376425  0.53766452  0.74048695     0.18400
N4042       N  0.66633298  0.54501093  0.73858890    -0.88300
H4043       H  0.56662271  0.94004435  0.77525862     0.35800
H4044       H  0.55963317  0.92742301  0.75379016     0.40900
H4045       H  0.67487635  0.53793146  0.72834525     0.40500
H4046       H  0.68215193  0.55515865  0.74860898     0.35400
C4047       C  0.75460595  0.56655142  0.77025787    -0.26300
C4048       C  0.74665844  0.53728628  0.77277509    -0.14400
C4049       C  0.76217423  0.52994423  0.78526774     0.36200
C4050       C  0.78445034  0.55207708  0.79565995    -0.25800
C4051       C  0.79122412  0.58119995  0.79383199    -0.15000
C4052       C  0.77689558  0.58862476  0.78049525     0.37300
N4053       N  0.78508069  0.61855482  0.77735458    -0.89300
H4054       H  0.74316347  0.57215855  0.76028086     0.18400
H4055       H  0.79572562  0.54642247  0.80571884     0.18400
N4056       N  0.75468104  0.50008189  0.78775974    -0.88300
H4057       H  0.77226448  0.62020598  0.76713997     0.35800
H4058       H  0.80649124  0.62924968  0.77259023     0.40900
H4059       H  0.73351860  0.48881112  0.79297689     0.40500
H4060       H  0.76826727  0.49845625  0.79738188     0.35400
C4061       C  0.70703665  0.93500090  0.73778182    -0.26300
C4062       C  0.70086472  0.95506541  0.72933459    -0.14400
C4063       C  0.69662796  0.95364805  0.71051340     0.36200
C4064       C  0.69734478  0.93157210  0.70053862    -0.25800
C4065       C  0.70223865  0.91053255  0.70897421    -0.15000
C4066       C  0.70776175  0.91279262  0.72781699     0.37300
N4067       N  0.71422734  0.89277984  0.73693209    -0.89300
H4068       H  0.71066075  0.93616789  0.75225884     0.18400
H4069       H  0.69357558  0.93074517  0.68609406     0.18400
N4070       N  0.69181566  0.97482071  0.70144854    -0.88300
H4071       H  0.69875463  0.88241279  0.74710949     0.35800
H4072       H  0.73464646  0.90472689  0.74308558     0.40900
H4073       H  0.67185373  0.96382956  0.69467964     0.40500
H4074       H  0.70818658  0.98531034  0.69177775     0.35400
C4075       C  0.94781866  0.88762342  0.75075001    -0.26300
C4076       C  0.92272978  0.88845954  0.75561204    -0.14400
C4077       C  0.92500433  0.91537630  0.76021091     0.36200
C4078       C  0.95214633  0.94082254  0.75946862    -0.25800
C4079       C  0.97738490  0.94016023  0.75436823    -0.15000
C4080       C  0.97499888  0.91305494  0.75004163     0.37300
N4081       N  0.50023412  0.91572332  0.73537993    -0.89300
H4082       H  0.94624032  0.86703869  0.74720958     0.18400
H4083       H  0.95346254  0.96122205  0.76315159     0.18400
N4084       N  0.90046797  0.91744142  0.76636163    -0.88300
H4085       H  0.49475936  0.90821914  0.72209354     0.35800
H4086       H  0.50406945  0.90091954  0.74254195     0.40900
H4087       H  0.89110518  0.90331463  0.77732545     0.40500
H4088       H  0.88511537  0.91110671  0.75598529     0.35400
C4089       C  0.88726652  0.77907467  0.77319250    -0.26300
C4090       C  0.86429355  0.78494709  0.77489309    -0.14400
C4091       C  0.84087147  0.76763946  0.78652973     0.36200
C4092       C  0.84103606  0.74490074  0.79628146    -0.25800
C4093       C  0.86447425  0.73961316  0.79499899    -0.15000
C4094       C  0.88765278  0.75663594  0.78309872     0.37300
N4095       N  0.91138374  0.75100349  0.78100757    -0.89300
H4096       H  0.90505374  0.79214943  0.76405840     0.18400
H4097       H  0.82326509  0.73192134  0.80544345     0.18400
N4098       N  0.81753795  0.77379296  0.78885153    -0.88300
H4099       H  0.92676958  0.76571656  0.77189350     0.35800
H4100       H  0.90296226  0.73032676  0.77527708     0.40900
H4101       H  0.82632768  0.79438918  0.79475653     0.40500
H4102       H  0.80206321  0.75905836  0.79791243     0.35400
C4103       C  0.80335679  0.83022797  0.70205183    -0.26300
C4104       C  0.77830774  0.82803110  0.71013140    -0.14400
C4105       C  0.77572763  0.82590021  0.72923177     0.36200
C4106       C  0.79769212  0.82520667  0.73953827    -0.25800
C4107       C  0.82259011  0.82760705  0.73137831    -0.15000
C4108       C  0.82547798  0.83007265  0.71235895     0.37300
N4109       N  0.85039462  0.83248894  0.70301656    -0.89300
H4110       H  0.80596416  0.83212949  0.68750338     0.18400
H4111       H  0.79594630  0.82390794  0.75414887     0.18400
N4112       N  0.75119300  0.82485456  0.73821886    -0.88300
H4113       H  0.84295581  0.81468383  0.69429782     0.35800
H4114       H  0.86494185  0.83088188  0.71182778     0.40900
H4115       H  0.75298072  0.84532281  0.73668376     0.40500
H4116       H  0.75204748  0.82178348  0.75212231     0.35400
C4117       C  0.95709116  0.77240564  0.90481057    -0.26300
C4118       C  0.98567162  0.78760331  0.89810725    -0.14400
C4119       C  0.99152195  0.78095013  0.88068884     0.36200
C4120       C  0.96912570  0.75844271  0.87075542    -0.25800
C4121       C  0.94067655  0.74266248  0.87753301    -0.15000
C4122       C  0.93442536  0.75009796  0.89465309     0.37300
N4123       N  0.90520530  0.73527237  0.90159606    -0.89300
H4124       H  0.95254455  0.77768057  0.91810450     0.18400
H4125       H  0.97405855  0.75308968  0.85759580     0.18400
N4126       N  0.51453745  0.80852602  0.87113225    -0.88300
H4127       H  0.89247516  0.74023979  0.89308246     0.35800
H4128       H  0.90445113  0.74321431  0.91438506     0.40900
H4129       H  0.51511207  0.82844377  0.87254951     0.40500
H4130       H  0.51432011  0.80476818  0.85725778     0.35400
C4131       C  0.51295208  0.86483034  0.95857081    -0.26300
C4132       C  0.52546523  0.87191455  0.94133329    -0.14400
C4133       C  0.53714431  0.90064347  0.93484875     0.36200
C4134       C  0.53631229  0.92177578  0.94572190    -0.25800
C4135       C  0.52447046  0.91507104  0.96324341    -0.15000
C4136       C  0.51223051  0.88606715  0.96961664     0.37300
N4137       N  0.99972389  0.88108245  0.98317156    -0.89300
H4138       H  0.00412792  0.84605907  0.95898847     0.18400
H4139       H  0.54576098  0.94382018  0.94058501     0.18400
N4140       N  0.55021111  0.90894108  0.91731915    -0.88300
H4141       H  0.99085623  0.85871723  0.98529684     0.35800
H4142       H  0.98221011  0.88494255  0.98266991     0.40900
H4143       H  0.53480174  0.89573683  0.90769458     0.40500
H4144       H  0.56775303  0.90513298  0.91678245     0.35400
C4145       C  0.63847029  0.85437248  0.91663239    -0.26300
C4146       C  0.63894470  0.82863373  0.92063459    -0.14400
C4147       C  0.61241894  0.80322225  0.92499708     0.36200
C4148       C  0.58629315  0.80393296  0.92488690    -0.25800
C4149       C  0.58596604  0.82959813  0.92073611    -0.15000
C4150       C  0.61230775  0.85499113  0.91655357     0.37300
N4151       N  0.61245267  0.88124233  0.91165412    -0.89300
H4152       H  0.65841611  0.87409190  0.91314654     0.18400
H4153       H  0.56613986  0.78434356  0.92827233     0.18400
N4154       N  0.61179046  0.77673030  0.92988152    -0.88300
H4155       H  0.62130704  0.88730156  0.89869134     0.35800
H4156       H  0.62614947  0.89758528  0.92064176     0.40900
H4157       H  0.59783313  0.76046739  0.92092916     0.40500
H4158       H  0.60300441  0.77080151  0.94286654     0.35400
C4159       C  0.71797470  0.77473459  0.92216911    -0.26300
C4160       C  0.69346907  0.77575752  0.91578254    -0.14400
C4161       C  0.66956112  0.75003135  0.90888679     0.36200
C4162       C  0.67059103  0.72408618  0.90859908    -0.25800
C4163       C  0.69502738  0.72321118  0.91506169    -0.15000
C4164       C  0.71884375  0.74879491  0.92207599     0.37300
N4165       N  0.74358412  0.74877335  0.92995550    -0.89300
H4166       H  0.73634133  0.79404715  0.92779262     0.18400
H4167       H  0.65215383  0.70446245  0.90331866     0.18400
N4168       N  0.64430442  0.75008668  0.90196410    -0.88300
H4169       H  0.75382048  0.74301121  0.92008895     0.35800
H4170       H  0.73629291  0.73316977  0.94026683     0.40900
H4171       H  0.62622817  0.73479659  0.90929257     0.40500
H4172       H  0.64143884  0.74329022  0.88849778     0.35400
C4173       C  0.73860980  0.66792827  0.87582996    -0.26300
C4174       C  0.73657193  0.66193496  0.89441973    -0.14400
C4175       C  0.75627582  0.65466948  0.90250312     0.36200
C4176       C  0.77753357  0.65347797  0.89178844    -0.25800
C4177       C  0.77986810  0.65978819  0.87317272    -0.15000
C4178       C  0.75998939  0.66700367  0.86517409     0.37300
N4179       N  0.76180454  0.67420602  0.84636132    -0.89300
H4180       H  0.72364543  0.67369313  0.86955181     0.18400
H4181       H  0.79262251  0.64794903  0.89811387     0.18400
N4182       N  0.75516181  0.64932323  0.92163125    -0.88300
H4183       H  0.76497540  0.69527882  0.84523428     0.35800
H4184       H  0.74185319  0.65987235  0.84031204     0.40900
H4185       H  0.76024102  0.66872596  0.92822736     0.40500
H4186       H  0.77110653  0.64419956  0.92543242     0.35400
C4187       C  0.62929810  0.60544021  0.96796915    -0.26300
C4188       C  0.61166828  0.57726407  0.96106097    -0.14400
C4189       C  0.61610218  0.57129783  0.94306478     0.36200
C4190       C  0.63703795  0.59394116  0.93224210    -0.25800
C4191       C  0.65400421  0.62223961  0.93908189    -0.15000
C4192       C  0.65044774  0.62775814  0.95724843     0.37300
N4193       N  0.66868335  0.65592216  0.96499236    -0.89300
H4194       H  0.62657875  0.61035854  0.98179105     0.18400
H4195       H  0.63993712  0.58956366  0.91833588     0.18400
N4196       N  0.59967252  0.54232017  0.93587796    -0.88300
H4197       H  0.67964403  0.65348124  0.97604417     0.35800
H4198       H  0.65531502  0.66373497  0.96978419     0.40900
H4199       H  0.60557954  0.52910427  0.94318379     0.40500
H4200       H  0.60539657  0.54177353  0.92244091     0.35400
C4201       C  0.77160935  0.88416070  0.91223376    -0.26300
C4202       C  0.74668095  0.88288147  0.91984403    -0.14400
C4203       C  0.74918833  0.90832001  0.92773063     0.36200
C4204       C  0.77621494  0.93415890  0.92786702    -0.25800
C4205       C  0.80098066  0.93520027  0.92038532    -0.15000
C4206       C  0.79852279  0.90994886  0.91232991     0.37300
N4207       N  0.82270345  0.91013153  0.90357462    -0.89300
H4208       H  0.77016026  0.86508968  0.90586965     0.18400
H4209       H  0.77792912  0.95351555  0.93399198     0.18400
N4210       N  0.72459335  0.90800869  0.93595011    -0.88300
H4211       H  0.83910703  0.91508229  0.91309353     0.35800
H4212       H  0.83067633  0.92638541  0.89365545     0.40900
H4213       H  0.72118101  0.92363499  0.92947345     0.40500
H4214       H  0.72970908  0.91413937  0.94947765     0.35400
C4215       C  0.84230242  0.57089048  0.89319831    -0.26300
C4216       C  0.86272394  0.58219860  0.87911520    -0.14400
C4217       C  0.88159383  0.57087580  0.87624387     0.36200
C4218       C  0.87910776  0.54815002  0.88707482    -0.25800
C4219       C  0.85795011  0.53607369  0.90062968    -0.15000
C4220       C  0.83965315  0.54779374  0.90398675     0.37300
N4221       N  0.81861263  0.53624451  0.91833504    -0.89300
H4222       H  0.82798562  0.57967590  0.89552146     0.18400
H4223       H  0.89346231  0.53942604  0.88465728     0.18400
N4224       N  0.90393866  0.58241333  0.86274823    -0.88300
H4225       H  0.80684574  0.54726929  0.91899317     0.35800
H4226       H  0.83003684  0.54032266  0.93051065     0.40900
H4227       H  0.91691017  0.60484877  0.86474082     0.40500
H4228       H  0.89430365  0.57860560  0.84996729     0.35400
C4229       C  0.89826956  0.48834039  0.96013527    -0.26300
C4230       C  0.90400639  0.99509741  0.94170633    -0.14400
C4231       C  0.93230296  0.00682876  0.93442088     0.36200
C4232       C  0.95493540  0.00872419  0.94535475    -0.25800
C4233       C  0.94989935  0.99902286  0.96336719    -0.15000
C4234       C  0.92113419  0.49105026  0.97102706     0.37300
N4235       N  0.91609515  0.48474357  0.98994690    -0.89300
H4236       H  0.87740039  0.48207503  0.96628058     0.18400
H4237       H  0.97660380  0.01769491  0.93973482     0.18400
N4238       N  0.93783650  0.01623051  0.91588574    -0.88300
H4239       H  0.89898422  0.46335190  0.99140238     0.35800
H4240       H  0.90950344  0.49865399  0.99550195     0.40900
H4241       H  0.92599203  0.99796195  0.90777771     0.40500
H4242       H  0.95987111  0.02452480  0.91270862     0.35400
C4243       C  0.78377759  0.56285629  0.07641640    -0.26300
C4244       C  0.76085580  0.56169437  0.08644039    -0.14400
C4245       C  0.76443657  0.58709215  0.09489184     0.36200
C4246       C  0.79060233  0.61331286  0.09279533    -0.25800
C4247       C  0.81352415  0.61474093  0.08247533    -0.15000
C4248       C  0.81001283  0.58912749  0.07429510     0.37300
N4249       N  0.83256815  0.58982265  0.06331069    -0.89300
H4250       H  0.78099372  0.54339790  0.06980070     0.18400
H4251       H  0.79308227  0.63264275  0.09941101     0.18400
N4252       N  0.74200499  0.58671742  0.10584684    -0.88300
H4253       H  0.82408639  0.58259660  0.05036287     0.35800
H4254       H  0.83832325  0.57515784  0.06876698     0.40900
H4255       H  0.73699614  0.57141498  0.11617696     0.40500
H4256       H  0.72343801  0.58006999  0.09788489     0.35400
C4257       C  0.70448241  0.91834250  0.11198640    -0.26300
C4258       C  0.69550557  0.91506531  0.13014573    -0.14400
C4259       C  0.68799050  0.93513798  0.13754593     0.36200
C4260       C  0.69028886  0.95812096  0.12676607    -0.25800
C4261       C  0.69946324  0.96124242  0.10877867    -0.15000
C4262       C  0.70658181  0.94116828  0.10133449     0.37300
N4263       N  0.71636567  0.94376426  0.08303979    -0.89300
H4264       H  0.71044495  0.90337775  0.10605300     0.18400
H4265       H  0.68478042  0.97363611  0.13236730     0.18400
N4266       N  0.67787290  0.93212176  0.15586863    -0.88300
H4267       H  0.73509038  0.96413300  0.08147856     0.35800
H4268       H  0.70019462  0.94289218  0.07450519     0.40900
H4269       H  0.65776312  0.91289364  0.15661431     0.40500
H4270       H  0.67401582  0.94904850  0.15925027     0.35400
C4271       C  0.60867585  0.48692488  0.05819812    -0.26300
C4272       C  0.61220390  0.99780292  0.04129582    -0.14400
C4273       C  0.64142348  0.01142222  0.03523880     0.36200
C4274       C  0.66312411  0.01326244  0.04695572    -0.25800
C4275       C  0.65663830  0.00177543  0.06457397    -0.15000
C4276       C  0.63059746  0.48876255  0.06976171     0.37300
N4277       N  0.62375529  0.47862631  0.08811238    -0.89300
H4278       H  0.58654930  0.47753200  0.06314202     0.18400
H4279       H  0.68537235  0.02365356  0.04212350     0.18400
N4280       N  0.64994839  0.02331522  0.01732056    -0.88300
H4281       H  0.60151095  0.46980862  0.09060861     0.35800
H4282       H  0.63465914  0.49671657  0.09657070     0.40900
H4283       H  0.63209208  0.01944545  0.00938050     0.40500
H4284       H  0.65919274  0.01221045  0.01100258     0.35400
C4285       C  0.88551066  0.77311989  0.08851742    -0.26300
C4286       C  0.86068653  0.77330749  0.08211437    -0.14400
C4287       C  0.83711173  0.74747275  0.07526748     0.36200
C4288       C  0.83902504  0.72192807  0.07484350    -0.25800
C4289       C  0.86408482  0.72176046  0.08107295    -0.15000
C4290       C  0.88731600  0.74763034  0.08823670     0.37300
N4291       N  0.91241539  0.74800974  0.09580823    -0.89300
H4292       H  0.90352202  0.79288269  0.09399963     0.18400
H4293       H  0.82103000  0.70218281  0.06935794     0.18400
N4294       N  0.81157723  0.74741557  0.06855649    -0.88300
H4295       H  0.91409806  0.75417997  0.10936671     0.35800
H4296       H  0.93080438  0.76396416  0.08905153     0.40900
H4297       H  0.81774190  0.76113262  0.05728242     0.40500
H4298       H  0.79616631  0.72662997  0.06404333     0.35400
C4299       C  0.81988167  0.83005369  0.12357321    -0.26300
C4300       C  0.81861183  0.83314765  0.10483753    -0.14400
C4301       C  0.79622639  0.83716220  0.09750485     0.36200
C4302       C  0.77559630  0.83788403  0.10899412    -0.25800
C4303       C  0.77668431  0.83473657  0.12785722    -0.15000
C4304       C  0.79934852  0.83090125  0.13512231     0.37300
N4305       N  0.80150629  0.82738742  0.15417450    -0.89300
H4306       H  0.83689812  0.82676222  0.12929239     0.18400
H4307       H  0.75848645  0.84076887  0.10303896     0.18400
N4308       N  0.79341209  0.83967462  0.07841372    -0.88300
H4309       H  0.82192010  0.84386433  0.15856140     0.35800
H4310       H  0.80043812  0.80738469  0.15636512     0.40900
H4311       H  0.79171215  0.82121362  0.07215482     0.40500
H4312       H  0.81220863  0.85797367  0.07371649     0.35400
C4313       C  0.93464760  0.88651194  0.06770838    -0.26300
C4314       C  0.90541626  0.87685450  0.06332413    -0.14400
C4315       C  0.89894912  0.88926152  0.04833508     0.36200
C4316       C  0.92168189  0.91095576  0.03812975    -0.25800
C4317       C  0.95091328  0.92027436  0.04233527    -0.15000
C4318       C  0.95748799  0.90818249  0.05740967     0.37300
N4319       N  0.98728888  0.91817131  0.06229421    -0.89300
H4320       H  0.93960713  0.87689213  0.07915516     0.18400
H4321       H  0.91645850  0.92005452  0.02651965     0.18400
N4322       N  0.86958023  0.87939538  0.04271281    -0.88300
H4323       H  0.98836569  0.90702844  0.07372222     0.35800
H4324       H  0.99668223  0.94004264  0.06596981     0.40900
H4325       H  0.85871785  0.88333529  0.05309376     0.40500
H4326       H  0.85926303  0.85693894  0.04044031     0.35400
C4327       C  0.97249845  0.69283917  0.07145161    -0.26300
C4328       C  0.97281881  0.66815617  0.07799123    -0.14400
C4329       C  0.94668357  0.64397361  0.08379734     0.36200
C4330       C  0.92080297  0.64502674  0.08334474    -0.25800
C4331       C  0.92028804  0.66998126  0.07724448    -0.15000
C4332       C  0.94667517  0.69403181  0.07091176     0.37300
N4333       N  0.94811053  0.71974040  0.06355629    -0.89300
H4334       H  0.99256332  0.71142084  0.06678395     0.18400
H4335       H  0.90110998  0.62628125  0.08825676     0.18400
N4336       N  0.94651403  0.61862702  0.09076314    -0.88300
H4337       H  0.94339713  0.73032837  0.07374037     0.35800
H4338       H  0.93283005  0.71376471  0.05313012     0.40900
H4339       H  0.93201580  0.60075878  0.08297412     0.40500
H4340       H  0.93861434  0.61518556  0.10399663     0.35400
C4341       C  0.58353938  0.70104716  0.12165972    -0.26300
C4342       C  0.57430067  0.70919975  0.10605594    -0.14400
C4343       C  0.58739336  0.73886670  0.10130742     0.36200
C4344       C  0.60916579  0.75992413  0.11249978    -0.25800
C4345       C  0.61782884  0.75196728  0.12850778    -0.15000
C4346       C  0.60483807  0.72199686  0.13300804     0.37300
N4347       N  0.61305856  0.71204091  0.14879285    -0.89300
H4348       H  0.57350946  0.67823386  0.12532189     0.18400
H4349       H  0.61899918  0.78273283  0.10888850     0.18400
N4350       N  0.57835869  0.74743089  0.08518145    -0.88300
H4351       H  0.60748143  0.71960007  0.16027827     0.35800
H4352       H  0.63557947  0.72042673  0.14858392     0.40900
H4353       H  0.58375173  0.73875365  0.07415306     0.40500
H4354       H  0.58998241  0.77005599  0.08364619     0.35400
C4355       C  0.55104285  0.62950915  0.05171171    -0.26300
C4356       C  0.53144698  0.62088540  0.06622319    -0.14400
C4357       C  0.51411127  0.59091936  0.07027531     0.36200
C4358       C  0.51609568  0.57031225  0.05949613    -0.25800
C4359       C  0.53525438  0.57887140  0.04474564    -0.15000
C4360       C  0.55296335  0.60876779  0.04090168     0.37300
N4361       N  0.57189394  0.61808084  0.02553951    -0.89300
H4362       H  0.56428278  0.65242025  0.04842497     0.18400
H4363       H  0.50251436  0.54739446  0.06265795     0.18400
N4364       N  0.49476432  0.58083643  0.08544757    -0.88300
H4365       H  0.09453454  0.64142632  0.02841274     0.35800
H4366       H  0.07065867  0.61423678  0.01524182     0.40900
H4367       H  0.47878982  0.58667864  0.08365043     0.40500
H4368       H  0.50672832  0.59105081  0.09708418     0.35400
loop_ 
_geom_bond_atom_site_label_1 
_geom_bond_atom_site_label_2 
_geom_bond_distance 
_geom_bond_site_symmetry_2 
_ccdc_geom_bond_type 
C1            C2   1.402       .  A
C1            C6   1.404       .  A
C1         C1066   1.477       .  S
C2            C3   1.402       .  A
C2            H7   1.084       .  S
C3            C4   1.402       .  A
C3         C3236   1.481   1_455  S
C4            C5   1.404       .  A
C4         H2192   1.084   1_455  S
C5            C6   1.404       .  A
C5         C1080   1.479       .  S
C6            H9   1.084       .  S
H8         C2188   1.084       .  S
C10          C11   1.405       .  A
C10          C15   1.401       .  A
C10        C1038   1.480       .  S
C11          C12   1.405       .  A
C11          H16   1.083       .  S
C12          C13   1.403       .  A
C12        C1024   1.478       .  S
C13          C14   1.399       .  A
C13          H17   1.084       .  S
C14          C15   1.399       .  A
C14        C1010   1.475       .  S
C15          H18   1.084       .  S
C19          C24   1.406       .  A
C19        C1112   1.407       .  A
C19         C999   1.488       .  S
C20          C21   1.400       .  A
C20        C1111   1.405       .  A
C20          H25   1.083       .  S
C21          C22   1.403       .  A
C21         C968   1.479       .  S
C22        C1115   1.403   1_545  A
C22          H26   1.084       .  S
C23          C24   1.402       .  A
C23        C1114   1.400       .  A
C23         C985   1.474       .  S
C24          H27   1.083       .  S
C28         C971   1.488       .  S
C28          N29   1.358       .  A
C28          N33   1.359       .  A
N29          C30   1.357       .  A
C30        C1013   1.482       .  S
C30          N31   1.357       .  A
N31          C32   1.357       .  A
C32        C1055   1.489       .  S
C32          N33   1.360       .  A
C34          C39   1.404       .  A
C34        C1127   1.403       .  A
C34         C954   1.476       .  S
C35          C36   1.403       .  A
C35        C1126   1.404   1_545  A
C35          H40   1.084       .  S
C36        C1129   1.404   1_545  A
C36         C943   1.479       .  S
C37          C38   1.400       .  A
C37        C1128   1.402       .  A
C37          H41   1.084       .  S
C38          C39   1.401       .  A
C38         C929   1.477       .  S
C39          H42   1.084       .  S
C43          C44   1.407       .  A
C43          C48   1.404       .  A
C43         C898   1.487       .  S
C44          C45   1.407       .  A
C44          H49   1.083       .  S
C45          C46   1.406       .  A
C45         C915   1.487       .  S
C46          C47   1.401       .  A
C46          H50   1.084       .  S
C47          C48   1.402       .  A
C47         C887   1.481       .  S
C48          H51   1.084       .  S
C52         C926   1.488       .  S
C52          N53   1.360       .  A
C52          N57   1.360       .  A
N53          C54   1.360       .  A
C54         C884   1.489       .  S
C54          N55   1.357       .  A
N55          C56   1.358       .  A
C56         C870   1.487       .  S
C56          N57   1.358       .  A
C58          C59   1.404       .  A
C58          C63   1.403       .  A
C58        C3026   1.482   1_455  S
C59          C60   1.404       .  A
C59        H2248   1.084   1_455  S
C60          C61   1.402       .  A
C60         C856   1.472       .  S
C61          C62   1.400       .  A
C61          H65   1.084       .  S
C62          C63   1.402       .  A
C62         C873   1.480       .  S
C63          H66   1.084       .  S
H64        C2243   1.084       .  S
Zn67         O71   1.959       .  S
Zn67         O72   2.024       .  S
Zn67         O76   2.019   1_554  S
Zn67       O2267   2.019   1_455  S
Zn68       O1163   1.955   1_545  S
Zn68         O73   2.014   1_554  S
Zn68         O75   1.999       .  S
Zn68         O79   2.016       .  S
Zn69         O71   1.961   1_556  S
Zn69         O74   2.010       .  S
Zn69       O1169   2.018       .  S
Zn69       O2264   2.017   1_455  S
Zn70       O2255   1.954       .  S
Zn70         O78   2.003   1_554  S
Zn70         O82   2.003       .  S
Zn70       O3357   2.012       .  S
O71       Zn1160   1.957       .  S
O71       Zn2254   1.953   1_455  S
O72          C84   1.273       .  A
O73          C85   1.273       .  A
O74          C86   1.273       .  A
O75        C1176   1.272   1_545  A
O76          C86   1.274       .  A
O77       Zn1161   2.020   1_545  S
O77          C85   1.273       .  A
O78          C87   1.272       .  A
O79          C88   1.273       .  A
O80       Zn2253   2.016       .  S
O80          C87   1.274       .  A
O81       Zn3346   2.015   1_455  S
O81          C88   1.274       .  A
O82          C89   1.271       .  A
O83       Zn2251   2.032       .  S
O83          C89   1.275       .  A
C84         C996   1.473       .  S
C84        O1167   1.272       .  A
C85         C912   1.487       .  S
C86         C859   1.486       .  S
C87         C957   1.486       .  S
C88        C1083   1.477       .  S
C89        C1041   1.479       .  S
C90          C91   1.402       .  A
C90          C95   1.401       .  A
C90         C831   1.476       .  S
C91          C92   1.407       .  A
C91          H96   1.083       .  S
C92          C93   1.409       .  A
C92         C814   1.495       .  S
C93          C94   1.404       .  A
C93          H97   1.084       .  S
C94          C95   1.402       .  A
C94         C800   1.483       .  S
C95          H98   1.084       .  S
C99         C100   1.405       .  A
C99         C104   1.405       .  A
C99         C786   1.481       .  S
C100       C1193   1.405       .  A
C100        H105   1.084       .  S
C101        C102   1.402       .  A
C101       C1192   1.403   1_545  A
C101        C772   1.479       .  S
C102       C1195   1.399   1_545  A
C102        H106   1.084       .  S
C103        C104   1.400       .  A
C103       C1194   1.402       .  A
C103        C758   1.480       .  S
C104        H107   1.084       .  S
C108        C109   1.411       .  A
C108        C113   1.405       .  A
C108       C2931   1.493   1_455  S
C109        C110   1.411       .  A
C109        H114   1.082       .  S
C110        C111   1.405       .  A
C110        C730   1.492       .  S
C111        C112   1.398       .  A
C111        H115   1.084       .  S
C112        C113   1.399       .  A
C112        C716   1.477       .  S
C113       H2300   1.084   1_455  S
H116       C2297   1.084       .  S
C117       C2987   1.483   1_455  S
C117        N118   1.356       .  A
C117        N122   1.359       .  A
N118       C1211   1.357       .  A
C119        C719   1.484       .  S
C119        N120   1.357       .  A
C119       N1210   1.359   1_545  A
N120       C1213   1.357   1_545  A
C121        C761   1.488       .  S
C121        N122   1.359       .  A
C121       N1212   1.361       .  A
Zn123       O127   1.955       .  S
Zn123       O128   2.006       .  S
Zn123       O132   2.009       .  S
Zn123       O139   2.009       .  S
Zn124       O127   1.962       .  S
Zn124       O129   2.001       .  S
Zn124       O131   2.013       .  S
Zn124       O135   2.027       .  S
Zn125       O127   1.966       .  S
Zn125       O130   2.031       .  S
Zn125       O133   2.035       .  S
Zn125       O136   2.027       .  S
Zn126       O127   1.956       .  S
Zn126       O134   2.015       .  S
Zn126       O137   2.004       .  S
Zn126       O138   2.024       .  S
O128        C140   1.271       .  A
O129        C141   1.271       .  A
O130        C142   1.275       .  A
O131        C140   1.272       .  A
O132        C142   1.274       .  A
O133        C141   1.275       .  A
O134        C143   1.273       .  A
O135        C144   1.274       .  A
O136        C143   1.276       .  A
O137        C144   1.273       .  A
O138        C145   1.274       .  A
O139        C145   1.272       .  A
C140        C744   1.468       .  S
C141        C940   1.480       .  S
C142        C845   1.491       .  S
C143        C901   1.490       .  S
C144        C775   1.481       .  S
C145        C817   1.487       .  S
C146        C147   1.406       .  A
C146        C151   1.407       .  A
C146        C688   1.488       .  S
C147        C148   1.402       .  A
C147        H152   1.083       .  S
C148        C149   1.401       .  A
C148        C705   1.482       .  S
C149        C150   1.401       .  A
C149        H153   1.084       .  S
C150        C151   1.403       .  A
C150        C674   1.482       .  S
C151        H154   1.084       .  S
C155        C156   1.401       .  A
C155        C160   1.406       .  A
C155        C663   1.482       .  S
C156       C2341   1.396       .  A
C156       H2345   1.084   1_455  S
C157       C2340   1.401       .  A
C157       C2342   1.400       .  A
C157        C632   1.480       .  S
C158        C159   1.407       .  A
C158       C2341   1.402       .  A
C158        H162   1.084       .  S
C159        C160   1.407       .  A
C159        C649   1.486       .  S
C160        H163   1.084       .  S
H161       C2340   1.083       .  S
C164        C169   1.406       .  A
C164       C1257   1.400       .  A
C164        C618   1.480       .  S
C165        C166   1.397       .  A
C165       C1256   1.404   1_545  A
C165        H170   1.084       .  S
C166       C1259   1.395       .  A
C166        C590   1.471       .  S
C167        C168   1.407       .  A
C167       C1258   1.397       .  A
C167       H1263   1.083       .  S
C168        C169   1.409       .  A
C168        C607   1.487       .  S
C169        H172   1.083       .  S
H171       C1259   1.084       .  S
C173        C635   1.487       .  S
C173        N174   1.359       .  A
C173        N178   1.357       .  A
N174        C175   1.358       .  A
C175        C677   1.491       .  S
C175        N176   1.358       .  A
N176        C177   1.357       .  A
C177        C593   1.479       .  S
C177        N178   1.357       .  A
Zn179       O183   1.960       .  S
Zn179       O184   2.030       .  S
Zn179       O188   2.025       .  S
Zn179       O195   2.023       .  S
Zn180       O183   1.962       .  S
Zn180       O185   2.021       .  S
Zn180       O187   2.020       .  S
Zn180       O191   2.012       .  S
Zn181       O183   1.958       .  S
Zn181       O186   2.001       .  S
Zn181       O189   2.008       .  S
Zn181       O192   2.015       .  S
Zn182       O183   1.960       .  S
Zn182       O190   2.008       .  S
Zn182       O193   2.016       .  S
Zn182       O194   2.023       .  S
O184        C196   1.276       .  A
O185        C197   1.273       .  A
O186        C198   1.271       .  A
O187        C196   1.275       .  A
O188        C198   1.273       .  A
O189        C197   1.273       .  A
O190        C199   1.273       .  A
O191        C200   1.273       .  A
O192        C199   1.272       .  A
O193        C200   1.273       .  A
O194        C201   1.274       .  A
O195        C201   1.275       .  A
C196        C733   1.489       .  S
C197        C828   1.485       .  S
C198        C691   1.473       .  S
C199        C604   1.470       .  S
C200        C789   1.485       .  S
C201        C646   1.481       .  S
C202        C203   1.405       .  A
C202        C207   1.404       .  A
C202        C562   1.482       .  S
C203        C204   1.402       .  A
C203        H208   1.084       .  S
C204        C205   1.400       .  A
C204        C579   1.471       .  S
C205        C206   1.400       .  A
C205        H209   1.084       .  S
C206        C207   1.401       .  A
C206        C548   1.475       .  S
C207        H210   1.084       .  S
C211        C212   1.407       .  A
C211        C216   1.410       .  A
C211        C537   1.491       .  S
C212        C213   1.402       .  A
C212        H217   1.084       .  S
C213        C214   1.400       .  A
C213        C509   1.481       .  S
C214        C215   1.401       .  A
C214        H218   1.084       .  S
C215        C216   1.406       .  A
C215       C2704   1.480   1_455  S
C216       H2403   1.083   1_455  S
H219       C2400   1.083       .  S
C220        C221   1.400       .  A
C220       C1317   1.403   1_545  A
C220        C481   1.475       .  S
C221        C222   1.403   1_545  A
C221        H226   1.084       .  S
C222       C1315   1.406       .  A
C222       C1584   1.481       .  S
C223        C224   1.396       .  A
C223       C1314   1.400       .  A
C223        H227   1.084       .  S
C224        C225   1.399       .  A
C224        C464   1.470       .  S
C225       C1312   1.401       .  A
C225        H228   1.084       .  S
C229        C506   1.488       .  S
C229        N230   1.358       .  A
C229        N234   1.359       .  A
N230        C231   1.357       .  A
C231        C551   1.484       .  S
C231        N232   1.356       .  A
N232        C233   1.357       .  A
C233        C467   1.480       .  S
C233        N234   1.358       .  A
Zn235       O239   1.960       .  S
Zn235       O251   2.019       .  S
Zn235      O1332   2.027       .  S
Zn235      O2428   2.018   1_455  S
Zn236      O1331   1.956   1_545  S
Zn236       O243   2.009       .  S
Zn236       O247   2.015       .  S
Zn236      O2425   2.013   1_455  S
Zn237      O2423   1.959       .  S
Zn237       O242   2.015       .  S
Zn237       O245   2.018       .  S
Zn237      O2432   2.020       .  S
Zn238       O239   1.955       .  S
Zn238       O246   2.005       .  S
Zn238       O250   2.005       .  S
Zn238      O1341   1.997       .  S
O239      Zn1328   1.958       .  S
O239      Zn2421   1.957   1_455  S
O240      Zn1327   2.032   1_545  S
O240        C252   1.276       .  A
O241      Zn2420   2.025       .  S
O241       C1345   1.274   1_545  A
O242        C254   1.274       .  A
O243        C252   1.273       .  A
O244      Zn2419   2.006       .  S
O244        C254   1.273       .  A
O245        C253   1.274       .  A
O246        C255   1.271       .  A
O247        C256   1.272       .  A
O248      Zn2421   2.011   1_455  S
O248        C255   1.273       .  A
O249      Zn1330   2.011   1_545  S
O249        C256   1.273       .  A
O250        C257   1.272       .  A
O251        C257   1.274       .  A
C252        C534   1.488       .  S
C253        C621   1.483       .  S
C253       O1333   1.272       .  A
C254        C576   1.480       .  S
C255        C660   1.480       .  S
C256        C702   1.484       .  S
C257        C495   1.488       .  S
C258        C259   1.407       .  A
C258       C1355   1.408   1_545  A
C258        C450   1.486       .  S
C259       C1352   1.400       .  A
C259        H264   1.083       .  S
C260        C261   1.399       .  A
C260       C1351   1.402       .  A
C260        C422   1.481       .  S
C261        C262   1.401       .  A
C261        H265   1.084       .  S
C262        C263   1.404       .  A
C262        C439   1.477       .  S
C263       C1350   1.405       .  A
C263        H266   1.084       .  S
C267        C268   1.403       .  A
C267        C272   1.399       .  A
C267        C394   1.477       .  S
C268        C269   1.406       .  A
C268        H273   1.084       .  S
C269        C270   1.408       .  A
C269        C408   1.485       .  S
C270        C271   1.403       .  A
C270        H274   1.084       .  S
C271        C272   1.397       .  A
C271        C383   1.475       .  S
C272        H275   1.085       .  S
C276        C277   1.409       .  A
C276        C281   1.408       .  A
C276       C2539   1.492   1_455  S
C277        C278   1.402       .  A
C277       H2466   1.083   1_455  S
C278        C279   1.397       .  A
C278        C341   1.480       .  S
C279        C280   1.400       .  A
C279        H283   1.084       .  S
C280        C281   1.403       .  A
C280        C369   1.478       .  S
C281        H284   1.083       .  S
H282       C2461   1.083       .  S
C285        C380   1.484       .  S
C285        N286   1.359       .  A
C285       N1382   1.359       .  A
N286       C1379   1.358       .  A
C287       C2609   1.483       .  S
C287        N288   1.357       .  A
C287       N1378   1.358   1_655  A
N288        C289   1.357   1_655  A
C289        C338   1.487       .  S
C289        N290   1.360       .  A
N290       C1377   1.359       .  A
Zn291       O295   1.952       .  S
Zn291       O296   2.003       .  S
Zn291       O300   2.002       .  S
Zn291       O307   2.000       .  S
Zn292       O295   1.949       .  S
Zn292       O297   2.008       .  S
Zn292       O299   2.005       .  S
Zn292       O303   2.000       .  S
Zn293       O295   1.958       .  S
Zn293       O298   2.015       .  S
Zn293       O301   2.024       .  S
Zn293       O304   2.012       .  S
Zn294       O295   1.961       .  S
Zn294       O302   2.021       .  S
Zn294       O305   2.024       .  S
Zn294       O306   2.024       .  S
O296        C308   1.272       .  A
O297        C309   1.272       .  A
O298        C310   1.274       .  A
O299        C308   1.271       .  A
O300        C310   1.272       .  A
O301        C309   1.275       .  A
O302        C311   1.274       .  A
O303        C312   1.272       .  A
O304        C311   1.274       .  A
O305        C312   1.274       .  A
O306        C313   1.275       .  A
O307        C313   1.270       .  A
C308        C436   1.474       .  S
C309        C982   1.491       .  S
C310       C1027   1.487       .  S
C311       C1069   1.482       .  S
C312        C366   1.480       .  S
C313        C397   1.481       .  S
Zn314       O318   1.958       .  S
Zn314       O319   2.014       .  S
Zn314       O323   2.029       .  S
Zn314       O330   2.020       .  S
Zn315       O318   1.971       .  S
Zn315       O320   2.030       .  S
Zn315       O322   2.023       .  S
Zn315       O326   2.029       .  S
Zn316       O318   1.958       .  S
Zn316       O321   2.007       .  S
Zn316       O324   2.005       .  S
Zn316       O327   2.014       .  S
Zn317       O318   1.960       .  S
Zn317       O325   2.016       .  S
Zn317       O328   2.023       .  S
Zn317       O329   2.039       .  S
O319        C331   1.275       .  A
O320        C332   1.274       .  A
O321        C333   1.272       .  A
O322        C331   1.274       .  A
O323        C333   1.274       .  A
O324        C332   1.273       .  A
O325        C334   1.273       .  A
O326        C335   1.276       .  A
O327        C334   1.272       .  A
O328        C335   1.274       .  A
O329        C336   1.275       .  A
O330        C336   1.273       .  A
C331        C565   1.488       .  S
C332        C478   1.493       .  S
C333        C411   1.474       .  S
C334        C453   1.471       .  S
C335        C523   1.497       .  S
C336        C352   1.480       .  S
C337        C338   1.405       .  A
C337        C342   1.395       .  A
C337        H344   1.084       .  S
C338        C339   1.419   1_455  A
C339        C340   1.407       .  A
C339       N2530   1.438       .  S
C340        C341   1.401   1_655  A
C340       H2529   1.084       .  S
C341        C342   1.414       .  A
C342        N343   1.434       .  S
N343        H347   1.044       .  S
N343        H348   1.045       .  S
H345       C2524   1.084       .  S
N346       C2523   1.438       .  S
N346        H349   1.046       .  S
N346        H350   1.046       .  S
C351        C352   1.401       .  A
C351        C356   1.403       .  A
C351        H358   1.084       .  S
C352        C353   1.412       .  A
C353        C354   1.411       .  A
C353        N360   1.438       .  S
C354        C355   1.407       .  A
C354        H359   1.083       .  S
C355        C356   1.412       .  A
C355       C2460   1.492       .  S
C356        N357   1.433       .  S
N357        H361   1.046       .  S
N357        H362   1.045       .  S
N360        H363   1.045       .  S
N360        H364   1.046       .  S
C365        C366   1.406       .  A
C365        C370   1.407       .  A
C365        H372   1.083       .  S
C366        C367   1.414       .  A
C367        C368   1.401       .  A
C367        N374   1.438       .  S
C368        C369   1.401       .  A
C368        H373   1.084       .  S
C369        C370   1.410       .  A
C370        N371   1.438       .  S
N371        H375   1.045       .  S
N371        H376   1.046       .  S
N374        H377   1.045       .  S
N374        H378   1.046       .  S
C379        C380   1.408       .  A
C379        C384   1.401       .  A
C379        H386   1.084       .  S
C380        C381   1.413       .  A
C381        C382   1.399       .  A
C381        N388   1.432       .  S
C382        C383   1.400       .  A
C382        H387   1.084       .  S
C383        C384   1.411       .  A
C384        N385   1.433       .  S
N385        H389   1.044       .  S
N385        H390   1.046       .  S
N388        H391   1.045       .  S
N388        H392   1.046       .  S
C393        C394   1.400       .  A
C393        C398   1.398       .  A
C393        H400   1.084       .  S
C394        C395   1.410       .  A
C395        C396   1.403       .  A
C395        N402   1.438       .  S
C396        C397   1.404       .  A
C396        H401   1.084       .  S
C397        C398   1.419       .  A
C398        N399   1.433       .  S
N399        H403   1.045       .  S
N399        H404   1.045       .  S
N402        H405   1.045       .  S
N402        H406   1.046       .  S
C407        C408   1.404       .  A
C407        C412   1.403       .  A
C407        H414   1.084       .  S
C408        C409   1.412       .  A
C409        C410   1.405       .  A
C409        N416   1.438       .  S
C410        C411   1.403       .  A
C410        H415   1.084       .  S
C411        C412   1.418       .  A
C412        N413   1.439       .  S
N413        H417   1.046       .  S
N413        H418   1.041       .  S
N416        H419   1.046       .  S
N416        H420   1.045       .  S
C421        C422   1.402       .  A
C421        C426   1.405       .  A
C421        H428   1.084       .  S
C422       C1515   1.416       .  A
C423        C424   1.400       .  A
C423       C1514   1.415       .  A
C423        N430   1.440       .  S
C424       C1517   1.406   1_545  A
C424        H429   1.084       .  S
C425        C426   1.419       .  A
C425       C1516   1.406       .  A
C425       C2471   1.491       .  S
C426        N427   1.438       .  S
N427        H431   1.046       .  S
N427        H432   1.045       .  S
N430        H433   1.042       .  S
N430        H434   1.046       .  S
C435        C436   1.404       .  A
C435        C440   1.405       .  A
C435        H442   1.084       .  S
C436        C437   1.411       .  A
C437        C438   1.402       .  A
C437        N444   1.438       .  S
C438        C439   1.403       .  A
C438        H443   1.084       .  S
C439        C440   1.410       .  A
C440        N441   1.438       .  S
N441        H445   1.046       .  S
N441       H1538   1.046       .  S
N444        H447   1.046       .  S
N444        H448   1.046       .  S
H446       N1533   1.046   1_545  S
C449        C450   1.405       .  A
C449        C454   1.402       .  A
C449        H456   1.084       .  S
C450        C451   1.413       .  A
C451        C452   1.404       .  A
C451        N458   1.438       .  S
C452        C453   1.401       .  A
C452        H457   1.084       .  S
C453        C454   1.417       .  A
C454        N455   1.439       .  S
N455        H459   1.045       .  S
N455        H460   1.042       .  S
N458        H461   1.046       .  S
N458        H462   1.045       .  S
C463        C464   1.400       .  A
C463        C468   1.402       .  A
C463        H470   1.084       .  S
C464        C465   1.409       .  A
C465        C466   1.395       .  A
C465        N472   1.433       .  S
C466        C467   1.406       .  A
C466        H471   1.084       .  S
C467        C468   1.413       .  A
C468        N469   1.432       .  S
N469        H473   1.045       .  S
N469        H474   1.046       .  S
N472        H475   1.046       .  S
N472        H476   1.044       .  S
C477        C478   1.409       .  A
C477        C482   1.398       .  A
C477        H484   1.084       .  S
C478        C479   1.419       .  A
C479        C480   1.408       .  A
C479        N486   1.438       .  S
C480        C481   1.401       .  A
C480        H485   1.084       .  S
C481        C482   1.412       .  A
C482        N483   1.440       .  S
N483        H487   1.046       .  S
N483        H488   1.043       .  S
N486        H489   1.046       .  S
N486        H490   1.045       .  S
C491        C492   1.400       .  A
C491        C496   1.402       .  A
C491        H498   1.084       .  S
C492       C1585   1.413       .  A
C492       C1314   1.477       .  S
C493       C1584   1.412       .  A
C493       C1586   1.397       .  A
C493        N500   1.433       .  S
C494        C495   1.408       .  A
C494       C1585   1.398       .  A
C494       H1591   1.084       .  S
C495        C496   1.415       .  A
C496        N497   1.432       .  S
N497        H502   1.045       .  S
N497       H1593   1.046       .  S
H499       C1586   1.084       .  S
N500       H1595   1.046   1_565  S
N500       H1596   1.043       .  S
H501       N1589   1.046       .  S
H503       N1592   1.045       .  S
H504       N1592   1.044       .  S
C505        C506   1.407       .  A
C505        C510   1.405       .  A
C505        H512   1.083       .  S
C506        C507   1.417       .  A
C507        C508   1.405       .  A
C507        N514   1.438       .  S
C508        C509   1.401       .  A
C508        H513   1.084       .  S
C509        C510   1.410       .  A
C510        N511   1.438       .  S
N511        H515   1.046       .  S
N511        H516   1.045       .  S
N514        H517   1.045       .  S
N514        H518   1.046       .  S
C519        C520   1.400       .  A
C519        C524   1.407       .  A
C519       H2710   1.084       .  S
C520        C521   1.410       .  A
C520       C2399   1.481       .  S
C521        C522   1.401       .  A
C521        N528   1.433       .  S
C522        C523   1.410       .  A
C522        H527   1.083       .  S
C523        C524   1.421       .  A
C524        N525   1.438       .  S
N525        H529   1.045       .  S
N525        H530   1.046       .  S
H526       C2703   1.084   1_455  S
N528        H531   1.046       .  S
N528        H532   1.044       .  S
C533        C534   1.407       .  A
C533        C538   1.410       .  A
C533        H540   1.083       .  S
C534        C535   1.412       .  A
C535        C536   1.401       .  A
C535        N542   1.433       .  S
C536        C537   1.404       .  A
C536        H541   1.084       .  S
C537        C538   1.415       .  A
C538        N539   1.437       .  S
N539        H543   1.045       .  S
N539        H544   1.046       .  S
N542        H545   1.045       .  S
N542        H546   1.046       .  S
C547        C548   1.401       .  A
C547        C552   1.401       .  A
C547        H554   1.084       .  S
C548        C549   1.406       .  A
C549        C550   1.402       .  A
C549        N556   1.433       .  S
C550        C551   1.408       .  A
C550        H555   1.084       .  S
C551        C552   1.414       .  A
C552        N553   1.432       .  S
N553        H557   1.046       .  S
N553        H558   1.045       .  S
N556        H559   1.046       .  S
N556        H560   1.045       .  S
C561        C562   1.403       .  A
C561        C566   1.409       .  A
C561        H568   1.084       .  S
C562        C563   1.408       .  A
C563        C564   1.399       .  A
C563        N570   1.433       .  S
C564        C565   1.406       .  A
C564        H569   1.084       .  S
C565        C566   1.418       .  A
C566        N567   1.438       .  S
N567        H571   1.046       .  S
N567        H572   1.046       .  S
N570        H573   1.046       .  S
N570        H574   1.045       .  S
C575        C576   1.406       .  A
C575        C580   1.397       .  A
C575        H582   1.084       .  S
C576        C577   1.415       .  A
C577        C578   1.405       .  A
C577        N584   1.438       .  S
C578        C579   1.400       .  A
C578        H583   1.084       .  S
C579        C580   1.409       .  A
C580        N581   1.433       .  S
N581        H585   1.045       .  S
N581        H586   1.045       .  S
N584        H587   1.046       .  S
N584        H588   1.045       .  S
C589        C590   1.400       .  A
C589        C594   1.399       .  A
C589        H596   1.084       .  S
C590        C591   1.406       .  A
C591        C592   1.404       .  A
C591        N598   1.438       .  S
C592        C593   1.406       .  A
C592        H597   1.084       .  S
C593        C594   1.417       .  A
C594        N595   1.433       .  S
N595        H599   1.046       .  S
N595        H600   1.043       .  S
N598        H601   1.046       .  S
N598        H602   1.045       .  S
C603        C604   1.399       .  A
C603        C608   1.398       .  A
C603        H610   1.084       .  S
C604        C605   1.410       .  A
C605        C606   1.409       .  A
C605        N612   1.438       .  S
C606        C607   1.408       .  A
C606        H611   1.083       .  S
C607        C608   1.412       .  A
C608        N609   1.433       .  S
N609        H613   1.046       .  S
N609        H614   1.045       .  S
N612        H615   1.045       .  S
N612        H616   1.046       .  S
C617        C618   1.403       .  A
C617        C622   1.397       .  A
C617        H624   1.084       .  S
C618        C619   1.413       .  A
C619        C620   1.400       .  A
C619        N626   1.433       .  S
C620        C621   1.406       .  A
C620        H625   1.084       .  S
C621        C622   1.418       .  A
C622        N623   1.433       .  S
N623        H627   1.045       .  S
N623        H628   1.045       .  S
N626        H629   1.045       .  S
N626        H630   1.045       .  S
C631        C632   1.402       .  A
C631        C636   1.400       .  A
C631        H638   1.084       .  S
C632        C633   1.409       .  A
C633        C634   1.402       .  A
C633        N640   1.438       .  S
C634        C635   1.406       .  A
C634        H639   1.083       .  S
C635        C636   1.420       .  A
C636        N637   1.432       .  S
N637        H641   1.046       .  S
N637        H642   1.042       .  S
N640        H643   1.045       .  S
N640        H644   1.046       .  S
C645        C646   1.404       .  A
C645        C650   1.403       .  A
C645        H652   1.084       .  S
C646        C647   1.413       .  A
C647        C648   1.408       .  A
C647        N654   1.438       .  S
C648        C649   1.405       .  A
C648        H653   1.083       .  S
C649        C650   1.409       .  A
C650        N651   1.433       .  S
N651        H655   1.044       .  S
N651        H656   1.047       .  S
N654        H657   1.047       .  S
N654        H658   1.044       .  S
C659        C660   1.403       .  A
C659        C664   1.400       .  A
C659        H666   1.084   1_455  S
C660        C661   1.412       .  A
C661        C662   1.403       .  A
C661        N668   1.432       .  S
C662        C663   1.403       .  A
C662        H667   1.084       .  S
C663        C664   1.411       .  A
C664        N665   1.433   1_455  S
N665        H669   1.046       .  S
N665        H670   1.045       .  S
N668        H671   1.046       .  S
N668        H672   1.045       .  S
C673        C674   1.402       .  A
C673        C678   1.400       .  A
C673        H680   1.084       .  S
C674        C675   1.417       .  A
C675        C676   1.403       .  A
C675        N682   1.440       .  S
C676        C677   1.409       .  A
C676        H681   1.083       .  S
C677        C678   1.414       .  A
C678        N679   1.433       .  S
N679        H683   1.046       .  S
N679        H684   1.045       .  S
N682        H685   1.041       .  S
N682        H686   1.047       .  S
C687        C688   1.406       .  A
C687        C692   1.404       .  A
C687        H694   1.083       .  S
C688        C689   1.416       .  A
C689        C690   1.406       .  A
C689        N696   1.438       .  S
C690        C691   1.401       .  A
C690        H695   1.084       .  S
C691        C692   1.409       .  A
C692        N693   1.438       .  S
N693        H697   1.045       .  S
N693        H698   1.046       .  S
N696        H699   1.045       .  S
N696        H700   1.046       .  S
C701        C702   1.405       .  A
C701        C706   1.403       .  A
C701        H708   1.084       .  S
C702        C703   1.416       .  A
C703        C704   1.406       .  A
C703        N710   1.438       .  S
C704        C705   1.403       .  A
C704        H709   1.084       .  S
C705        C706   1.411       .  A
C706        N707   1.438       .  S
N707        H711   1.046       .  S
N707        H712   1.045       .  S
N710        H713   1.046       .  S
N710        H714   1.046       .  S
C715        C716   1.400       .  A
C715        C720   1.402       .  A
C715        H722   1.084       .  S
C716        C717   1.412       .  A
C717        C718   1.399       .  A
C717       N2908   1.433   1_455  S
C718        C719   1.406       .  A
C718       H2907   1.084   1_455  S
C719        C720   1.414       .  A
C720        N721   1.433       .  S
N721        H725   1.045       .  S
N721        H726   1.046       .  S
H723       C2902   1.084       .  S
N724       C2901   1.433       .  S
N724        H727   1.046       .  S
N724        H728   1.045       .  S
C729        C730   1.406       .  A
C729        C734   1.403       .  A
C729        H736   1.084       .  S
C730        C731   1.411       .  A
C731        C732   1.406       .  A
C731        N738   1.432       .  S
C732        C733   1.407       .  A
C732        H737   1.084       .  S
C733        C734   1.412       .  A
C734        N735   1.433       .  S
N735        H739   1.045       .  S
N735        H740   1.047       .  S
N738        H741   1.046       .  S
N738        H742   1.046       .  S
C743        C744   1.399       .  A
C743        C748   1.403       .  A
C743        H750   1.084       .  S
C744        C745   1.407       .  A
C745        C746   1.405       .  A
C745        N752   1.438       .  S
C746        C747   1.408       .  A
C746       H2935   1.083       .  S
C747        C748   1.415       .  A
C747       C2292   1.487       .  S
C748        N749   1.438       .  S
N749        H753   1.046       .  S
N749        H754   1.045       .  S
H751       C2930   1.083   1_455  S
N752        H755   1.047       .  S
N752        H756   1.044       .  S
C757        C758   1.402       .  A
C757        C762   1.405       .  A
C757        H764   1.084       .  S
C758       C1851   1.412       .  A
C759        C760   1.397       .  A
C759       C1850   1.413   1_545  A
C759        N766   1.433       .  S
C760       C1853   1.406   1_545  A
C760        H765   1.084       .  S
C761        C762   1.415       .  A
C761       C1852   1.406       .  A
C762        N763   1.432       .  S
N763        H767   1.046       .  S
N763        H768   1.045       .  S
N766        H769   1.045       .  S
N766        H770   1.044       .  S
C771        C772   1.401       .  A
C771        C776   1.401       .  A
C771        H778   1.084       .  S
C772        C773   1.411       .  A
C773        C774   1.408       .  A
C773        N780   1.438   1_545  S
C774        C775   1.406       .  A
C774        H779   1.083       .  S
C775        C776   1.413       .  A
C776        N777   1.438       .  S
N777        H781   1.046       .  S
N777        H782   1.045       .  S
N780        H783   1.047       .  S
N780        H784   1.045       .  S
C785        C786   1.402       .  A
C785        C790   1.403       .  A
C785        H792   1.084       .  S
C786        C787   1.408       .  A
C787        C788   1.403       .  A
C787        N794   1.433       .  S
C788        C789   1.406       .  A
C788        H793   1.084       .  S
C789        C790   1.414       .  A
C790        N791   1.433       .  S
N791        H795   1.045       .  S
N791        H796   1.046       .  S
N794        H797   1.045       .  S
N794        H798   1.046       .  S
C799        C800   1.403       .  A
C799        C804   1.404       .  A
C799        H806   1.084       .  S
C800        C801   1.413       .  A
C801        C802   1.400       .  A
C801        N808   1.433       .  S
C802        C803   1.408       .  A
C802        H807   1.084       .  S
C803        C804   1.413       .  A
C803       C2301   1.488       .  S
C804       N2989   1.432       .  S
N805       C2988   1.432   1_455  S
N805        H809   1.046   1_455  S
N805        H810   1.045       .  S
N808        H811   1.046       .  S
N808        H812   1.044       .  S
C813        C814   1.406       .  A
C813        C818   1.405       .  A
C813        H820   1.083       .  S
C814        C815   1.416       .  A
C815        C816   1.407       .  A
C815        N822   1.438       .  S
C816        C817   1.405       .  A
C816        H821   1.084       .  S
C817        C818   1.414       .  A
C818        N819   1.438       .  S
N819        H823   1.045       .  S
N819        H824   1.046       .  S
N822        H825   1.045       .  S
N822        H826   1.046       .  S
C827        C828   1.405       .  A
C827        C832   1.399       .  A
C827        H834   1.084       .  S
C828        C829   1.415       .  A
C829        C830   1.407       .  A
C829        N836   1.438       .  S
C830        C831   1.403       .  A
C830        H835   1.084       .  S
C831        C832   1.414       .  A
C832        N833   1.439       .  S
N833        H837   1.046       .  S
N833        H838   1.043       .  S
N836        H839   1.045       .  S
N836        H840   1.046       .  S
C841        C842   1.399       .  A
C841        C846   1.404       .  A
C841        H848   1.084       .  S
C842        C843   1.407       .  A
C842       C2242   1.475       .  S
C843        C844   1.406       .  A
C843       N3034   1.438       .  S
C844        C845   1.410       .  A
C844        H849   1.083       .  S
C845        C846   1.415       .  A
C846        N847   1.432       .  S
N847        H851   1.045       .  S
N847        H852   1.046       .  S
N850       C3027   1.438   1_455  S
N850        H853   1.045       .  S
N850        H854   1.046       .  S
C855        C856   1.399       .  A
C855        C860   1.406       .  A
C855       H3046   1.084       .  S
C856        C857   1.408       .  A
C857        C858   1.398       .  A
C857        N864   1.433       .  S
C858        C859   1.408       .  A
C858        H863   1.084       .  S
C859        C860   1.417       .  A
C860       N3045   1.438       .  S
N861       C3044   1.438       .  S
N861        H865   1.046       .  S
N861        H866   1.045       .  S
H862       C3039   1.084       .  S
N864        H867   1.046       .  S
N864        H868   1.045       .  S
C869        C870   1.409       .  A
C869        C874   1.406       .  A
C869        H876   1.084       .  S
C870        C871   1.413       .  A
C871        C872   1.399       .  A
C871        N878   1.432       .  S
C872        C873   1.400       .  A
C872        H877   1.084       .  S
C873        C874   1.409       .  A
C874        N875   1.432       .  S
N875        H879   1.045       .  S
N875        H880   1.046       .  S
N878        H881   1.045       .  S
N878        H882   1.046       .  S
C883        C884   1.406       .  A
C883        C888   1.398       .  A
C883        H890   1.084       .  S
C884        C885   1.416       .  A
C885        C886   1.406       .  A
C885        N892   1.432       .  S
C886        C887   1.402       .  A
C886        H891   1.084       .  S
C887        C888   1.413       .  A
C888        N889   1.433       .  S
N889        H893   1.044       .  S
N889        H894   1.046       .  S
N892        H895   1.046       .  S
N892        H896   1.045       .  S
C897        C898   1.403       .  A
C897        C902   1.404       .  A
C897        H904   1.084       .  S
C898        C899   1.412       .  A
C899        C900   1.407       .  A
C899        N906   1.438       .  S
C900        C901   1.407       .  A
C900        H905   1.083       .  S
C901        C902   1.415       .  A
C902        N903   1.433       .  S
N903        H907   1.046       .  S
N903        H908   1.046       .  S
N906        H909   1.045       .  S
N906        H910   1.046       .  S
C911        C912   1.405       .  A
C911        C916   1.402       .  A
C911        H918   1.084       .  S
C912        C913   1.416       .  A
C913        C914   1.409       .  A
C913        N920   1.438       .  S
C914        C915   1.404       .  A
C914        H919   1.084       .  S
C915        C916   1.410       .  A
C916        N917   1.433       .  S
N917        H921   1.046       .  S
N917        H922   1.046       .  S
N920        H923   1.046       .  S
N920        H924   1.046       .  S
C925        C926   1.408       .  A
C925        C930   1.401       .  A
C925        H932   1.084       .  S
C926        C927   1.415       .  A
C927        C928   1.401       .  A
C927        N934   1.432       .  S
C928        C929   1.400       .  A
C928        H933   1.084       .  S
C929        C930   1.412       .  A
C930        N931   1.433       .  S
N931        H935   1.044       .  S
N931        H936   1.045       .  S
N934        H937   1.046       .  S
N934        H938   1.045       .  S
C939        C940   1.404       .  A
C939        C944   1.407       .  A
C939        H946   1.084       .  S
C940        C941   1.418       .  A
C941        C942   1.398       .  A
C941        N948   1.433       .  S
C942        C943   1.401       .  A
C942        H947   1.084       .  S
C943        C944   1.410       .  A
C944        N945   1.437       .  S
N945        H949   1.045       .  S
N945        H950   1.046       .  S
N948        H951   1.046       .  S
N948        H952   1.044       .  S
C953        C958   1.403       .  A
C953       C2046   1.402       .  A
C953        H960   1.084       .  S
C954        C955   1.408       .  A
C954       C2045   1.400       .  A
C955        C956   1.405       .  A
C955        N962   1.438       .  S
C956        C957   1.408       .  A
C956        H961   1.083       .  S
C957       C2050   1.415       .  A
C958       C2049   1.415       .  A
C958        N959   1.433       .  S
N959        H963   1.046       .  S
N959        H964   1.046       .  S
N962        H965   1.047       .  S
N962        H966   1.044       .  S
C967        C968   1.402       .  A
C967        C972   1.404       .  A
C967        H974   1.084       .  S
C968        C969   1.413       .  A
C969        C970   1.398       .  A
C969        N976   1.433       .  S
C970        C971   1.407       .  A
C970        H975   1.084       .  S
C971        C972   1.414       .  A
C972        N973   1.432       .  S
N973        H977   1.046       .  S
N973        H978   1.045       .  S
N976        H979   1.045       .  S
N976        H980   1.044       .  S
C981        C982   1.409       .  A
C981        C986   1.399       .  A
C981        H988   1.083       .  S
C982        C983   1.421       .  A
C983        C984   1.406       .  A
C983        N990   1.438       .  S
C984        C985   1.398       .  A
C984        H989   1.084       .  S
C985        C986   1.408       .  A
C986        N987   1.433       .  S
N987        H991   1.046       .  S
N987        H992   1.045       .  S
N990        H993   1.046       .  S
N990        H994   1.045       .  S
C995       C1000   1.404       .  A
C995       C2088   1.401       .  A
C995       H1002   1.084       .  S
C996        C997   1.416       .  A
C996       C2087   1.402       .  A
C997        C998   1.400       .  A
C997       N1004   1.440       .  S
C998        C999   1.404       .  A
C998       H1003   1.084       .  S
C999       C2092   1.415       .  A
C1000      C2091   1.414   1_565  A
C1000      N1001   1.438       .  S
N1001      H1005   1.047       .  S
N1001      H1006   1.044       .  S
N1004      H1007   1.043       .  S
N1004      H1008   1.046       .  S
C1009      C1010   1.401       .  A
C1009      C1014   1.400       .  A
C1009      H1016   1.084       .  S
C1010      C1011   1.408       .  A
C1011      C1012   1.405       .  A
C1011      N1018   1.438       .  S
C1012      C1013   1.407       .  A
C1012      H1017   1.083       .  S
C1013      C1014   1.412       .  A
C1014      N1015   1.432       .  S
N1015      H1019   1.046       .  S
N1015      H1020   1.046       .  S
N1018      H1021   1.046       .  S
N1018      H1022   1.045       .  S
C1023      C1024   1.401       .  A
C1023      C1028   1.404       .  A
C1023      H1030   1.084       .  S
C1024      C1025   1.410       .  A
C1025      C1026   1.398       .  A
C1025      N1032   1.432       .  S
C1026      C1027   1.408       .  A
C1026      H1031   1.084       .  S
C1027      C1028   1.418       .  A
C1028      N1029   1.439       .  S
N1029      H1033   1.046       .  S
N1029      H1034   1.045       .  S
N1032      H1035   1.045       .  S
N1032      H1036   1.045       .  S
C1037      C1038   1.404       .  A
C1037      C1042   1.405       .  A
C1037      H1044   1.084       .  S
C1038      C1039   1.412       .  A
C1039      C1040   1.399       .  A
C1039      N1046   1.433       .  S
C1040      C1041   1.406       .  A
C1040      H1045   1.084       .  S
C1041      C1042   1.411       .  A
C1042      N1043   1.438       .  S
N1043      H1047   1.046       .  S
N1043      H1048   1.045       .  S
N1046      H1049   1.044       .  S
N1046      H1050   1.045       .  S
C1051      C1052   1.399       .  A
C1051      C1056   1.398       .  A
C1051      H1058   1.084       .  S
C1052      C1053   1.407       .  A
C1052      C2187   1.475       .  S
C1053      C1054   1.405       .  A
C1053      N1060   1.438       .  S
C1054      C1055   1.408       .  A
C1054      H1059   1.083       .  S
C1055      C1056   1.422       .  A
C1056      N1057   1.432       .  S
N1057      H1061   1.043       .  S
N1057      H1062   1.045       .  S
N1060      H1063   1.044       .  S
N1060      H1064   1.047       .  S
C1065      C1066   1.401       .  A
C1065      C1070   1.399       .  A
C1065      H1072   1.084       .  S
C1066      C1067   1.409       .  A
C1067      C1068   1.405       .  A
C1067      N1074   1.438       .  S
C1068      C1069   1.406       .  A
C1068      H1073   1.084       .  S
C1069      C1070   1.417       .  A
C1070      N1071   1.433       .  S
N1071      H1075   1.044       .  S
N1071      H1076   1.046       .  S
N1074      H1077   1.044       .  S
N1074      H1078   1.048       .  S
C1079      C1080   1.403       .  A
C1079      C1084   1.404       .  A
C1079      H1086   1.084       .  S
C1080      C1081   1.414       .  A
C1081      C1082   1.399       .  A
C1081      N1088   1.433   1_455  S
C1082      C1083   1.403       .  A
C1082      H1087   1.084       .  S
C1083      C1084   1.410       .  A
C1084      N1085   1.433       .  S
N1085      H3273   1.045       .  S
N1085      H3274   1.046       .  S
N1088      H1091   1.041       .  S
N1088      H1092   1.048   1_655  S
H1089      N3269   1.046       .  S
H1090      N3269   1.045       .  S
C1093      C1094   1.404       .  A
C1093      C1098   1.406       .  A
C1093      C2158   1.482       .  S
C1094      C1095   1.400       .  A
C1094      H1099   1.084       .  S
C1095      C1096   1.400       .  A
C1095      C4328   1.478   1_455  S
C1096      C1097   1.403       .  A
C1096      H3284   1.084   1_455  S
C1097      C1098   1.404       .  A
C1097      C2172   1.480       .  S
C1098      H1101   1.084       .  S
H1100      C3280   1.084       .  S
C1102      C1103   1.404       .  A
C1102      C1107   1.402       .  A
C1102      C2130   1.478       .  S
C1103      C1104   1.404       .  A
C1103      H1108   1.083       .  S
C1104      C1105   1.401       .  A
C1104      C2116   1.474       .  S
C1105      C1106   1.400       .  A
C1105      H1109   1.084       .  S
C1106      C1107   1.399       .  A
C1106      C2102   1.474       .  S
C1107      H1110   1.084       .  S
C1111      C1116   1.404   1_545  A
C1111      C2091   1.484       .  S
C1112      C1113   1.403       .  A
C1112      H1117   1.083       .  S
C1113      C1114   1.402       .  A
C1113      C2060   1.480       .  S
C1114      H1118   1.084       .  S
C1115      C1116   1.400       .  A
C1115      C2077   1.474       .  S
C1116      H1119   1.083       .  S
C1120      C2063   1.488       .  S
C1120      N1121   1.358       .  A
C1120      N1125   1.360       .  A
N1121      C1122   1.358       .  A
C1122      C2105   1.484       .  S
C1122      N1123   1.358       .  A
N1123      C1124   1.358       .  A
C1124      C2147   1.491       .  S
C1124      N1125   1.361       .  A
C1126      C1131   1.404       .  A
C1126      C2046   1.482       .  S
C1127      C1128   1.403       .  A
C1127      H1132   1.084       .  S
C1128      C2035   1.478       .  S
C1129      C1130   1.403       .  A
C1129      H1133   1.084       .  S
C1130      C1131   1.401       .  A
C1130      C2021   1.479       .  S
C1131      H1134   1.084       .  S
C1135      C1136   1.407       .  A
C1135      C1140   1.404       .  A
C1135      C1990   1.483       .  S
C1136      C1137   1.404       .  A
C1136      H1141   1.084       .  S
C1137      C1138   1.403       .  A
C1137      C2007   1.480       .  S
C1138      C1139   1.399       .  A
C1138      H1142   1.084       .  S
C1139      C1140   1.400       .  A
C1139      C1979   1.476       .  S
C1140      H1143   1.084       .  S
C1144      C2018   1.487       .  S
C1144      N1145   1.359       .  A
C1144      N1149   1.356       .  A
N1145      C1146   1.360       .  A
C1146      C1976   1.485       .  S
C1146      N1147   1.358       .  A
N1147      C1148   1.357       .  A
C1148      C1962   1.484       .  S
C1148      N1149   1.357       .  A
C1150      C1151   1.407       .  A
C1150      C1155   1.403       .  A
C1150      C4118   1.486   1_455  S
C1151      C1152   1.405       .  A
C1151      H3340   1.084   1_455  S
C1152      C1153   1.400       .  A
C1152      C1948   1.473       .  S
C1153      C1154   1.400       .  A
C1153      H1157   1.084       .  S
C1154      C1155   1.400       .  A
C1154      C1965   1.480       .  S
C1155      H1158   1.084       .  S
H1156      C3335   1.084       .  S
Zn1159     O1163   1.959       .  S
Zn1159     O1164   2.009       .  S
Zn1159     O1168   2.017   1_554  S
Zn1159     O3359   2.030   1_455  S
Zn1160     O1165   2.013   1_554  S
Zn1160     O1167   2.006       .  S
Zn1160     O1171   2.020       .  S
Zn1161     O1163   1.961   1_556  S
Zn1161     O1166   2.010       .  S
Zn1161     O3356   2.015   1_465  S
Zn1162     O3347   1.960   1_545  S
Zn1162     O1170   2.014   1_554  S
Zn1162     O2265   2.019       .  S
Zn1162     O1174   2.007   1_545  S
O1163     Zn3346   1.953   1_465  S
O1164      C1176   1.273       .  A
O1165      C1177   1.273       .  A
O1166      C1178   1.273       .  A
O1168      C1178   1.274       .  A
O1169      C1177   1.273       .  A
O1170      C1179   1.273   1_545  A
O1171      C1180   1.274       .  A
O1172     Zn3345   2.027       .  S
O1172      C1179   1.275       .  A
O1173     Zn2254   2.007   1_455  S
O1173      C1180   1.274       .  A
O1174      C1181   1.272       .  A
O1175     Zn3343   2.019       .  S
O1175      C1181   1.274       .  A
C1176      C2088   1.466       .  S
C1177      C2004   1.488       .  S
C1178      C1951   1.481       .  S
C1179      C2049   1.487       .  S
C1180      C2175   1.479       .  S
C1181      C2133   1.475       .  S
C1182      C1183   1.404       .  A
C1182      C1187   1.397       .  A
C1182      C1923   1.474       .  S
C1183      C1184   1.410       .  A
C1183      H1188   1.083       .  S
C1184      C1185   1.405       .  A
C1184      C1906   1.489       .  S
C1185      C1186   1.400       .  A
C1185      H1189   1.084       .  S
C1186      C1187   1.395       .  A
C1186      C1892   1.471       .  S
C1187      H1190   1.084       .  S
C1191      C1192   1.406       .  A
C1191      C1196   1.405       .  A
C1191      C1878   1.483       .  S
C1192      H1197   1.084       .  S
C1193      C1194   1.407       .  A
C1193      C1864   1.486       .  S
C1194      H1198   1.084       .  S
C1195      C1196   1.400       .  A
C1195      C1850   1.476       .  S
C1196      H1199   1.084       .  S
C1200      C1201   1.412       .  A
C1200      C1205   1.409       .  A
C1200      C4023   1.496   1_455  S
C1201      C1202   1.407       .  A
C1201      H1206   1.083       .  S
C1202      C1203   1.401       .  A
C1202      C1822   1.483       .  S
C1203      C1204   1.399       .  A
C1203      H1207   1.084       .  S
C1204      C1205   1.402       .  A
C1204      C1808   1.477       .  S
C1205      H3392   1.083   1_455  S
H1208      C3389   1.083       .  S
C1209      C4079   1.486   1_455  S
C1209      N1210   1.360       .  A
C1209      N1214   1.357       .  A
C1211      C1811   1.485       .  S
C1211      N1212   1.360       .  A
C1213      C1853   1.483       .  S
C1213      N1214   1.356       .  A
Zn1215     O1219   1.957       .  S
Zn1215     O1220   2.019       .  S
Zn1215     O1224   2.019       .  S
Zn1215     O1231   2.009       .  S
Zn1216     O1219   1.964       .  S
Zn1216     O1221   2.009       .  S
Zn1216     O1223   2.020       .  S
Zn1216     O1227   2.034       .  S
Zn1217     O1219   1.963       .  S
Zn1217     O1222   2.026       .  S
Zn1217     O1225   2.018       .  S
Zn1217     O1228   2.019       .  S
Zn1218     O1219   1.953       .  S
Zn1218     O1226   2.015       .  S
Zn1218     O1229   2.010       .  S
Zn1218     O1230   2.010       .  S
O1220      C1232   1.273       .  A
O1221      C1233   1.273       .  A
O1222      C1234   1.274       .  A
O1223      C1232   1.273       .  A
O1224      C1234   1.275       .  A
O1225      C1233   1.274       .  A
O1226      C1235   1.273       .  A
O1227      C1236   1.276       .  A
O1228      C1235   1.274       .  A
O1229      C1236   1.274       .  A
O1230      C1237   1.273       .  A
O1231      C1237   1.272       .  A
C1232      C1836   1.474       .  S
C1233      C2032   1.472       .  S
C1234      C1937   1.494       .  S
C1235      C1993   1.489       .  S
C1236      C1867   1.488       .  S
C1237      C1909   1.483       .  S
C1238      C1239   1.406       .  A
C1238      C1243   1.409       .  A
C1238      C1780   1.491       .  S
C1239      C1240   1.402       .  A
C1239      H1244   1.083       .  S
C1240      C1241   1.401       .  A
C1240      C1797   1.484       .  S
C1241      C1242   1.403       .  A
C1241      H1245   1.084       .  S
C1242      C1243   1.406       .  A
C1242      C1766   1.489       .  S
C1243      H1246   1.082       .  S
C1247      C1248   1.403       .  A
C1247      C1252   1.408       .  A
C1247      C1755   1.485       .  S
C1248      C3433   1.398       .  A
C1248      H3437   1.084   1_455  S
C1249      C3432   1.402       .  A
C1249      C3434   1.402       .  A
C1249      C1724   1.483       .  S
C1250      C3433   1.400       .  A
C1250      C1251   1.406       .  A
C1250      H1254   1.084       .  S
C1251      C1252   1.409       .  A
C1251      C1741   1.488       .  S
C1252      H1255   1.084       .  S
H1253      C3432   1.084       .  S
C1256      C1261   1.411       .  A
C1256      C1710   1.488       .  S
C1257      C1258   1.395       .  A
C1257      H1262   1.085       .  S
C1258      C1682   1.469       .  S
C1259      C1260   1.405   1_545  A
C1260      C1261   1.412       .  A
C1260      C1699   1.490       .  S
C1261      H1264   1.083       .  S
C1265      C1727   1.492       .  S
C1265      N1266   1.363       .  A
C1265      N1270   1.358       .  A
N1266      C1267   1.362       .  A
C1267      C1769   1.494       .  S
C1267      N1268   1.356       .  A
N1268      C1269   1.353       .  A
C1269      C1685   1.471       .  S
C1269      N1270   1.356       .  A
Zn1271     O1275   1.957       .  S
Zn1271     O1276   2.026       .  S
Zn1271     O1280   2.029       .  S
Zn1271     O1287   2.021       .  S
Zn1272     O1275   1.968       .  S
Zn1272     O1277   2.026       .  S
Zn1272     O1279   2.033       .  S
Zn1272     O1283   2.018       .  S
Zn1273     O1275   1.957       .  S
Zn1273     O1278   2.014       .  S
Zn1273     O1281   2.004       .  S
Zn1273     O1284   2.020       .  S
Zn1274     O1275   1.963       .  S
Zn1274     O1282   2.023       .  S
Zn1274     O1285   2.015       .  S
Zn1274     O1286   2.024       .  S
O1276      C1288   1.275       .  A
O1277      C1289   1.274       .  A
O1278      C1290   1.272       .  A
O1279      C1288   1.276       .  A
O1280      C1290   1.274       .  A
O1281      C1289   1.273       .  A
O1282      C1291   1.274       .  A
O1283      C1292   1.274       .  A
O1284      C1291   1.273       .  A
O1285      C1292   1.274       .  A
O1286      C1293   1.274       .  A
O1287      C1293   1.275       .  A
C1288      C1825   1.497       .  S
C1289      C1920   1.491       .  S
C1290      C1783   1.477       .  S
C1291      C1696   1.474       .  S
C1292      C1881   1.483       .  S
C1293      C1738   1.484       .  S
C1294      C1295   1.404       .  A
C1294      C1299   1.403       .  A
C1294      C1654   1.480       .  S
C1295      C1296   1.402       .  A
C1295      H1300   1.084       .  S
C1296      C1297   1.403       .  A
C1296      C1671   1.476       .  S
C1297      C1298   1.404       .  A
C1297      H1301   1.084       .  S
C1298      C1299   1.402       .  A
C1298      C1640   1.482       .  S
C1299      H1302   1.084       .  S
C1303      C1304   1.407       .  A
C1303      C1308   1.409       .  A
C1303      C1629   1.490       .  S
C1304      C1305   1.404       .  A
C1304      H1309   1.084       .  S
C1305      C1306   1.400       .  A
C1305      C1601   1.485       .  S
C1306      C1307   1.402       .  A
C1306      H1310   1.084       .  S
C1307      C1308   1.408       .  A
C1307      C3796   1.484   1_455  S
C1308      H3495   1.083   1_455  S
H1311      C3492   1.083       .  S
C1312      C1313   1.405       .  A
C1312      C1573   1.476       .  S
C1313      C1314   1.407       .  A
C1313      H1318   1.084       .  S
C1315      C1316   1.403       .  A
C1315      H1319   1.083       .  S
C1316      C1317   1.403       .  A
C1316      C1556   1.483       .  S
C1317      H1320   1.084       .  S
C1321      C1598   1.493       .  S
C1321      N1322   1.357       .  A
C1321      N1326   1.362       .  A
N1322      C1323   1.357       .  A
C1323      C1643   1.491       .  S
C1323      N1324   1.359       .  A
N1324      C1325   1.360       .  A
C1325      C1559   1.492       .  S
C1325      N1326   1.361       .  A
Zn1327     O1331   1.967       .  S
Zn1327     O3520   2.031   1_455  S
Zn1327     O1343   2.026       .  S
Zn1328     O3517   2.021   1_455  S
Zn1328     O1335   2.031       .  S
Zn1328     O1339   2.024       .  S
Zn1329     O3515   1.962       .  S
Zn1329     O1334   2.021       .  S
Zn1329     O1337   2.022       .  S
Zn1329     O3524   2.011       .  S
Zn1330     O1331   1.954       .  S
Zn1330     O1338   2.013       .  S
Zn1330     O1342   2.004       .  S
O1331     Zn3513   1.957   1_455  S
O1332      C1344   1.275       .  A
O1333     Zn3512   2.014       .  S
O1334      C1346   1.274       .  A
O1335      C1344   1.276       .  A
O1336     Zn3511   2.024       .  S
O1336      C1346   1.275       .  A
O1337      C1345   1.273       .  A
O1338      C1347   1.273       .  A
O1339      C1348   1.274       .  A
O1340     Zn3513   2.017   1_455  S
O1340      C1347   1.274       .  A
O1341      C1348   1.272       .  A
O1342      C1349   1.273   1_565  A
O1343      C1349   1.275   1_565  A
C1344      C1626   1.494       .  S
C1345      C1713   1.475       .  S
C1346      C1668   1.484       .  S
C1347      C1752   1.482       .  S
C1348      C1794   1.484       .  S
C1349      C1587   1.487       .  S
C1350      C1351   1.406       .  A
C1350      C1542   1.483       .  S
C1351      H1356   1.084       .  S
C1352      C1353   1.395   1_545  A
C1352      C1514   1.475       .  S
C1353      C1354   1.399       .  A
C1353      H1357   1.085       .  S
C1354      C1355   1.404       .  A
C1354      C1531   1.476       .  S
C1355      H1358   1.084       .  S
C1359      C1360   1.404       .  A
C1359      C1364   1.402       .  A
C1359      C1486   1.482       .  S
C1360      C1361   1.408       .  A
C1360      H1365   1.084       .  S
C1361      C1362   1.409       .  A
C1361      C1500   1.493       .  S
C1362      C1363   1.403       .  A
C1362      H1366   1.081       .  S
C1363      C1364   1.401       .  A
C1363      C1475   1.483       .  S
C1364      H1367   1.084       .  S
C1368      C1369   1.407       .  A
C1368      C1373   1.407       .  A
C1368      C3631   1.487   1_455  S
C1369      C1370   1.400       .  A
C1369      H3558   1.084   1_455  S
C1370      C1371   1.399       .  A
C1370      C1433   1.477       .  S
C1371      C1372   1.403       .  A
C1371      H1375   1.084       .  S
C1372      C1373   1.406       .  A
C1372      C1461   1.484       .  S
C1373      H1376   1.083       .  S
H1374      C3553   1.084       .  S
C1377      C1472   1.489       .  S
C1377      N1378   1.358       .  A
C1379      C3701   1.488   1_455  S
C1379      N1380   1.357   1_545  A
N1380      C1381   1.356       .  A
C1381      C1430   1.482       .  S
C1381      N1382   1.358   1_565  A
Zn1383     O1387   1.952       .  S
Zn1383     O1388   1.997       .  S
Zn1383     O1392   2.008       .  S
Zn1383     O1399   2.008       .  S
Zn1384     O1387   1.956       .  S
Zn1384     O1389   2.007       .  S
Zn1384     O1391   2.013       .  S
Zn1384     O1395   2.006       .  S
Zn1385     O1387   1.960       .  S
Zn1385     O1390   2.017       .  S
Zn1385     O1393   2.026       .  S
Zn1385     O1396   2.015       .  S
Zn1386     O1387   1.960       .  S
Zn1386     O1394   2.020       .  S
Zn1386     O1397   2.020       .  S
Zn1386     O1398   2.030       .  S
O1388      C1400   1.272       .  A
O1389      C1401   1.272       .  A
O1390      C1402   1.274       .  A
O1391      C1400   1.272       .  A
O1392      C1402   1.272       .  A
O1393      C1401   1.274       .  A
O1394      C1403   1.274       .  A
O1395      C1404   1.272       .  A
O1396      C1403   1.274       .  A
O1397      C1404   1.274       .  A
O1398      C1405   1.275       .  A
O1399      C1405   1.271       .  A
C1400      C1528   1.478       .  S
C1401      C2074   1.482       .  S
C1402      C2119   1.490       .  S
C1403      C2161   1.488       .  S
C1404      C1458   1.481       .  S
C1405      C1489   1.485       .  S
Zn1406     O1410   1.959       .  S
Zn1406     O1411   2.007       .  S
Zn1406     O1415   2.023       .  S
Zn1406     O1422   2.013       .  S
Zn1407     O1410   1.962       .  S
Zn1407     O1412   2.019       .  S
Zn1407     O1414   2.021       .  S
Zn1407     O1418   2.022       .  S
Zn1408     O1410   1.959       .  S
Zn1408     O1413   2.013       .  S
Zn1408     O1416   2.024       .  S
Zn1408     O1419   2.022       .  S
Zn1409     O1410   1.955       .  S
Zn1409     O1417   2.004       .  S
Zn1409     O1420   2.012       .  S
Zn1409     O1421   2.013       .  S
O1411      C1423   1.274       .  A
O1412      C1424   1.273       .  A
O1413      C1425   1.273       .  A
O1414      C1423   1.274       .  A
O1415      C1425   1.274       .  A
O1416      C1424   1.276       .  A
O1417      C1426   1.271       .  A
O1418      C1427   1.275       .  A
O1419      C1426   1.273       .  A
O1420      C1427   1.273       .  A
O1421      C1428   1.272       .  A
O1422      C1428   1.272       .  A
C1423      C1657   1.488       .  S
C1424      C1570   1.494       .  S
C1425      C1503   1.477       .  S
C1426      C1545   1.469       .  S
C1427      C1615   1.491       .  S
C1428      C1444   1.470       .  S
C1429      C1430   1.405       .  A
C1429      C1434   1.397       .  A
C1429      H1436   1.084       .  S
C1430      C1431   1.416       .  A
C1431      C1432   1.407       .  A
C1431      N3622   1.438   1_455  S
C1432      C1433   1.401       .  A
C1432      H3621   1.084   1_455  S
C1433      C1434   1.412       .  A
C1434      N1435   1.433       .  S
N1435      H1439   1.044       .  S
N1435      H1440   1.046       .  S
H1437      C3616   1.084       .  S
N1438      C3615   1.438       .  S
N1438      H1441   1.046       .  S
N1438      H1442   1.045       .  S
C1443      C1444   1.401       .  A
C1443      C1448   1.402       .  A
C1443      H1450   1.084       .  S
C1444      C1445   1.410       .  A
C1445      C1446   1.405       .  A
C1445      N1452   1.438       .  S
C1446      C1447   1.404       .  A
C1446      H1451   1.084       .  S
C1447      C1448   1.411       .  A
C1447      C3552   1.482       .  S
C1448      N1449   1.433       .  S
N1449      H1453   1.046       .  S
N1449      H1454   1.046       .  S
N1452      H1455   1.045       .  S
N1452      H1456   1.046       .  S
C1457      C1458   1.405       .  A
C1457      C1462   1.407       .  A
C1457      H1464   1.084       .  S
C1458      C1459   1.413       .  A
C1459      C1460   1.403       .  A
C1459      N1466   1.438       .  S
C1460      C1461   1.404       .  A
C1460      H1465   1.084       .  S
C1461      C1462   1.411       .  A
C1462      N1463   1.438       .  S
N1463      H1467   1.046       .  S
N1463      H1468   1.045       .  S
N1466      H1469   1.046       .  S
N1466      H1470   1.046       .  S
C1471      C1472   1.408       .  A
C1471      C1476   1.402       .  A
C1471      H1478   1.084       .  S
C1472      C1473   1.414       .  A
C1473      C1474   1.401       .  A
C1473      N1480   1.432       .  S
C1474      C1475   1.402       .  A
C1474      H1479   1.084       .  S
C1475      C1476   1.414       .  A
C1476      N1477   1.433       .  S
N1477      H1481   1.044       .  S
N1477      H1482   1.045       .  S
N1480      H1483   1.046       .  S
N1480      H1484   1.046       .  S
C1485      C1486   1.401       .  A
C1485      C1490   1.400       .  A
C1485      H1492   1.084       .  S
C1486      C1487   1.411       .  A
C1487      C1488   1.406       .  A
C1487      N1494   1.438       .  S
C1488      C1489   1.405       .  A
C1488      H1493   1.084       .  S
C1489      C1490   1.419       .  A
C1490      N1491   1.433       .  S
N1491      H1495   1.046       .  S
N1491      H1496   1.044       .  S
N1494      H1497   1.045       .  S
N1494      H1498   1.047       .  S
C1499      C1500   1.407       .  A
C1499      C1504   1.404       .  A
C1499      H1506   1.084       .  S
C1500      C1501   1.412       .  A
C1501      C1502   1.401       .  A
C1501      N1508   1.432       .  S
C1502      C1503   1.402       .  A
C1502      H1507   1.084       .  S
C1503      C1504   1.420       .  A
C1504      N1505   1.440       .  S
N1505      H1509   1.046       .  S
N1505      H1510   1.041       .  S
N1508      H1511   1.045       .  S
N1508      H1512   1.046       .  S
C1513      C1514   1.402   1_565  A
C1513      C1518   1.403       .  A
C1513      H1520   1.084       .  S
C1515      C1516   1.401       .  A
C1515      N1522   1.440       .  S
C1516      H1521   1.084       .  S
C1517      C1518   1.415       .  A
C1517      C3563   1.484       .  S
C1518      N1519   1.438       .  S
N1519      H1523   1.045       .  S
N1519      H1524   1.046       .  S
N1522      H1525   1.042       .  S
N1522      H1526   1.045       .  S
C1527      C1528   1.406       .  A
C1527      C1532   1.407       .  A
C1527      H1534   1.084       .  S
C1528      C1529   1.413       .  A
C1529      C1530   1.400       .  A
C1529      N1536   1.439       .  S
C1530      C1531   1.401       .  A
C1530      H1535   1.084       .  S
C1531      C1532   1.410       .  A
C1532      N1533   1.438       .  S
N1533      H1537   1.045       .  S
N1536      H1539   1.046       .  S
N1536      H1540   1.045       .  S
C1541      C1542   1.405       .  A
C1541      C1546   1.403       .  A
C1541      H1548   1.084       .  S
C1542      C1543   1.412       .  A
C1543      C1544   1.403       .  A
C1543      N1550   1.438       .  S
C1544      C1545   1.400       .  A
C1544      H1549   1.084       .  S
C1545      C1546   1.416       .  A
C1546      N1547   1.439       .  S
N1547      H1551   1.046       .  S
N1547      H1552   1.043       .  S
N1550      H1553   1.046       .  S
N1550      H1554   1.045       .  S
C1555      C1556   1.403       .  A
C1555      C1560   1.406       .  A
C1555      H1562   1.084       .  S
C1556      C1557   1.413       .  A
C1557      C1558   1.399       .  A
C1557      N1564   1.433       .  S
C1558      C1559   1.408       .  A
C1558      H1563   1.084       .  S
C1559      C1560   1.415       .  A
C1560      N1561   1.432       .  S
N1561      H1565   1.046       .  S
N1561      H1566   1.046       .  S
N1564      H1567   1.045       .  S
N1564      H1568   1.044       .  S
C1569      C1570   1.408       .  A
C1569      C1574   1.400       .  A
C1569      H1576   1.083       .  S
C1570      C1571   1.420       .  A
C1571      C1572   1.408       .  A
C1571      N1578   1.438       .  S
C1572      C1573   1.400       .  A
C1572      H1577   1.084       .  S
C1573      C1574   1.414       .  A
C1574      N1575   1.439       .  S
N1575      H1579   1.044       .  S
N1575      H1580   1.044       .  S
N1578      H1581   1.046       .  S
N1578      H1582   1.045       .  S
C1583      C1584   1.404   1_545  A
C1583      C1588   1.407       .  A
C1583      H1590   1.084       .  S
C1585      N1592   1.434       .  S
C1586      C1587   1.407   1_565  A
C1587      C1588   1.416       .  A
C1588      N1589   1.438       .  S
N1589      H1594   1.046       .  S
C1597      C1598   1.407       .  A
C1597      C1602   1.407       .  A
C1597      H1604   1.083       .  S
C1598      C1599   1.419       .  A
C1599      C1600   1.406       .  A
C1599      N1606   1.438       .  S
C1600      C1601   1.401       .  A
C1600      H1605   1.084       .  S
C1601      C1602   1.411       .  A
C1602      N1603   1.438       .  S
N1603      H1607   1.045       .  S
N1603      H1608   1.046       .  S
N1606      H1609   1.044       .  S
N1606      H1610   1.047       .  S
C1611      C1612   1.401       .  A
C1611      C1616   1.403       .  A
C1611      H3802   1.084       .  S
C1612      C1613   1.412       .  A
C1612      C3491   1.480       .  S
C1613      C1614   1.400       .  A
C1613      N1620   1.433       .  S
C1614      C1615   1.408       .  A
C1614      H1619   1.083       .  S
C1615      C1616   1.416       .  A
C1616      N1617   1.433       .  S
N1617      H1621   1.045       .  S
N1617      H1622   1.046       .  S
H1618      C3795   1.084   1_455  S
N1620      H1623   1.045       .  S
N1620      H1624   1.044       .  S
C1625      C1626   1.409       .  A
C1625      C1630   1.411       .  A
C1625      H1632   1.083       .  S
C1626      C1627   1.414       .  A
C1627      C1628   1.403       .  A
C1627      N1634   1.432       .  S
C1628      C1629   1.403       .  A
C1628      H1633   1.084       .  S
C1629      C1630   1.412       .  A
C1630      N1631   1.438       .  S
N1631      H1635   1.049       .  S
N1631      H1636   1.043       .  S
N1634      H1637   1.046       .  S
N1634      H1638   1.046       .  S
C1639      C1640   1.402       .  A
C1639      C1644   1.403       .  A
C1639      H1646   1.084       .  S
C1640      C1641   1.407       .  A
C1641      C1642   1.403       .  A
C1641      N1648   1.432       .  S
C1642      C1643   1.408       .  A
C1642      H1647   1.083       .  S
C1643      C1644   1.417       .  A
C1644      N1645   1.432       .  S
N1645      H1649   1.046       .  S
N1645      H1650   1.045       .  S
N1648      H1651   1.046       .  S
N1648      H1652   1.045       .  S
C1653      C1654   1.402       .  A
C1653      C1658   1.407       .  A
C1653      H1660   1.084       .  S
C1654      C1655   1.407       .  A
C1655      C1656   1.400       .  A
C1655      N1662   1.433       .  S
C1656      C1657   1.407       .  A
C1656      H1661   1.084       .  S
C1657      C1658   1.418       .  A
C1658      N1659   1.438       .  S
N1659      H1663   1.047       .  S
N1659      H1664   1.044       .  S
N1662      H1665   1.045       .  S
N1662      H1666   1.046       .  S
C1667      C1668   1.405       .  A
C1667      C1672   1.398       .  A
C1667      H1674   1.084       .  S
C1668      C1669   1.416       .  A
C1669      C1670   1.408       .  A
C1669      N1676   1.438       .  S
C1670      C1671   1.401       .  A
C1670      H1675   1.084       .  S
C1671      C1672   1.410       .  A
C1672      N1673   1.433       .  S
N1673      H1677   1.045       .  S
N1673      H1678   1.046       .  S
N1676      H1679   1.044       .  S
N1676      H1680   1.048       .  S
C1681      C1682   1.400       .  A
C1681      C1686   1.397       .  A
C1681      H1688   1.084       .  S
C1682      C1683   1.407       .  A
C1683      C1684   1.405       .  A
C1683      N1690   1.438       .  S
C1684      C1685   1.404       .  A
C1684      H1689   1.084       .  S
C1685      C1686   1.413       .  A
C1686      N1687   1.433       .  S
N1687      H1691   1.045       .  S
N1687      H1692   1.045       .  S
N1690      H1693   1.041       .  S
N1690      H1694   1.051       .  S
C1695      C1696   1.398       .  A
C1695      C1700   1.400       .  A
C1695      H1702   1.084       .  S
C1696      C1697   1.411       .  A
C1697      C1698   1.411       .  A
C1697      N1704   1.437       .  S
C1698      C1699   1.407       .  A
C1698      H1703   1.083       .  S
C1699      C1700   1.414       .  A
C1700      N1701   1.433       .  S
N1701      H1705   1.046       .  S
N1701      H1706   1.045       .  S
N1704      H1707   1.045       .  S
N1704      H1708   1.046       .  S
C1709      C1710   1.403       .  A
C1709      C1714   1.405       .  A
C1709      H1716   1.084       .  S
C1710      C1711   1.414   1_565  A
C1711      C1712   1.405       .  A
C1711      N1718   1.438       .  S
C1712      C1713   1.401   1_545  A
C1712      H1717   1.084       .  S
C1713      C1714   1.418       .  A
C1714      N1715   1.439       .  S
N1715      H1719   1.047       .  S
N1715      H1720   1.041       .  S
N1718      H1721   1.045   1_545  S
N1718      H1722   1.046       .  S
C1723      C1724   1.401       .  A
C1723      C1728   1.401       .  A
C1723      H1730   1.084       .  S
C1724      C1725   1.407       .  A
C1725      C1726   1.403       .  A
C1725      N1732   1.432       .  S
C1726      C1727   1.408       .  A
C1726      H1731   1.084       .  S
C1727      C1728   1.423       .  A
C1728      N1729   1.433       .  S
N1729      H1733   1.045       .  S
N1729      H1734   1.045       .  S
N1732      H1735   1.046       .  S
N1732      H1736   1.045       .  S
C1737      C1738   1.404       .  A
C1737      C1742   1.403       .  A
C1737      H1744   1.084       .  S
C1738      C1739   1.412       .  A
C1739      C1740   1.406       .  A
C1739      N1746   1.432       .  S
C1740      C1741   1.405       .  A
C1740      H1745   1.084       .  S
C1741      C1742   1.411       .  A
C1742      N1743   1.433       .  S
N1743      H1747   1.045       .  S
N1743      H1748   1.046       .  S
N1746      H1749   1.046       .  S
N1746      H1750   1.045       .  S
C1751      C1752   1.404       .  A
C1751      C1756   1.402       .  A
C1751      H1758   1.084   1_455  S
C1752      C1753   1.412       .  A
C1753      C1754   1.404       .  A
C1753      N1760   1.432       .  S
C1754      C1755   1.403       .  A
C1754      H1759   1.084       .  S
C1755      C1756   1.411       .  A
C1756      N1757   1.433   1_455  S
N1757      H1761   1.046       .  S
N1757      H1762   1.045       .  S
N1760      H1763   1.046       .  S
N1760      H1764   1.045       .  S
C1765      C1766   1.403       .  A
C1765      C1770   1.399       .  A
C1765      H1772   1.084       .  S
C1766      C1767   1.412       .  A
C1767      C1768   1.409       .  A
C1767      N1774   1.437       .  S
C1768      C1769   1.409       .  A
C1768      H1773   1.083       .  S
C1769      C1770   1.417       .  A
C1770      N1771   1.433       .  S
N1771      H1775   1.046       .  S
N1771      H1776   1.046       .  S
N1774      H1777   1.042       .  S
N1774      H1778   1.049       .  S
C1779      C1780   1.407       .  A
C1779      C1784   1.407       .  A
C1779      H1786   1.083       .  S
C1780      C1781   1.416       .  A
C1781      C1782   1.405       .  A
C1781      N1788   1.438       .  S
C1782      C1783   1.400       .  A
C1782      H1787   1.084       .  S
C1783      C1784   1.410       .  A
C1784      N1785   1.438       .  S
N1785      H1789   1.046       .  S
N1785      H1790   1.045       .  S
N1788      H1791   1.045       .  S
N1788      H1792   1.046       .  S
C1793      C1794   1.406       .  A
C1793      C1798   1.402       .  A
C1793      H1800   1.084       .  S
C1794      C1795   1.415       .  A
C1795      C1796   1.407       .  A
C1795      N1802   1.438       .  S
C1796      C1797   1.404       .  A
C1796      H1801   1.084       .  S
C1797      C1798   1.411       .  A
C1798      N1799   1.439       .  S
N1799      H1803   1.046       .  S
N1799      H1804   1.045       .  S
N1802      H1805   1.045       .  S
N1802      H1806   1.047       .  S
C1807      C1808   1.401       .  A
C1807      C1812   1.403       .  A
C1807      H1814   1.084       .  S
C1808      C1809   1.410       .  A
C1809      C1810   1.400       .  A
C1809      N4000   1.433   1_455  S
C1810      C1811   1.408       .  A
C1810      H3999   1.084   1_455  S
C1811      C1812   1.412       .  A
C1812      N1813   1.432       .  S
N1813      H1817   1.046       .  S
N1813      H1818   1.045       .  S
H1815      C3994   1.084       .  S
N1816      C3993   1.433       .  S
N1816      H1819   1.046       .  S
N1816      H1820   1.044       .  S
C1821      C1822   1.401       .  A
C1821      C1826   1.405       .  A
C1821      H1828   1.084       .  S
C1822      C1823   1.406       .  A
C1823      C1824   1.407       .  A
C1823      N1830   1.432       .  S
C1824      C1825   1.410       .  A
C1824      H1829   1.083       .  S
C1825      C1826   1.418       .  A
C1826      N1827   1.432       .  S
N1827      H1831   1.046       .  S
N1827      H1832   1.046       .  S
N1830      H1833   1.045       .  S
N1830      H1834   1.046       .  S
C1835      C1836   1.401       .  A
C1835      C1840   1.407       .  A
C1835      H1842   1.084       .  S
C1836      C1837   1.407       .  A
C1837      C1838   1.406       .  A
C1837      N1844   1.438       .  S
C1838      C1839   1.410       .  A
C1838      H4027   1.083       .  S
C1839      C1840   1.416       .  A
C1839      C3384   1.495       .  S
C1840      N1841   1.437       .  S
N1841      H1845   1.044       .  S
N1841      H1846   1.047       .  S
H1843      C4022   1.083       .  S
N1844      H1847   1.045       .  S
N1844      H1848   1.046       .  S
C1849      C1850   1.400       .  A
C1849      C1854   1.402       .  A
C1849      H1856   1.084       .  S
C1851      C1852   1.400       .  A
C1851      N1858   1.433       .  S
C1852      H1857   1.084       .  S
C1853      C1854   1.414       .  A
C1854      N1855   1.432       .  S
N1855      H1859   1.046       .  S
N1855      H1860   1.045       .  S
N1858      H1861   1.046       .  S
N1858      H1862   1.044       .  S
C1863      C1864   1.402       .  A
C1863      C1868   1.403       .  A
C1863      H1870   1.084       .  S
C1864      C1865   1.413       .  A
C1865      C1866   1.409       .  A
C1865      N1872   1.438       .  S
C1866      C1867   1.406       .  A
C1866      H1871   1.083       .  S
C1867      C1868   1.415       .  A
C1868      N1869   1.438       .  S
N1869      H1873   1.046       .  S
N1869      H1874   1.046       .  S
N1872      H1875   1.044       .  S
N1872      H1876   1.047       .  S
C1877      C1878   1.403       .  A
C1877      C1882   1.403       .  A
C1877      H1884   1.084       .  S
C1878      C1879   1.410       .  A
C1879      C1880   1.402       .  A
C1879      N1886   1.433       .  S
C1880      C1881   1.405       .  A
C1880      H1885   1.084       .  S
C1881      C1882   1.413       .  A
C1882      N1883   1.432       .  S
N1883      H1887   1.045       .  S
N1883      H1888   1.046       .  S
N1886      H1889   1.046       .  S
N1886      H1890   1.045       .  S
C1891      C1892   1.400       .  A
C1891      C1896   1.400       .  A
C1891      H1898   1.084       .  S
C1892      C1893   1.411       .  A
C1893      C1894   1.396       .  A
C1893      N1900   1.433       .  S
C1894      C1895   1.407       .  A
C1894      H1899   1.084       .  S
C1895      C1896   1.413       .  A
C1895      C3393   1.481       .  S
C1896      N4081   1.432       .  S
N1897      C4080   1.432       .  S
N1897      H1901   1.045       .  S
N1897      H1902   1.046   1_655  S
N1900      H1903   1.045       .  S
N1900      H1904   1.044       .  S
C1905      C1906   1.406       .  A
C1905      C1910   1.405       .  A
C1905      H1912   1.083       .  S
C1906      C1907   1.412       .  A
C1907      C1908   1.405       .  A
C1907      N1914   1.438       .  S
C1908      C1909   1.405       .  A
C1908      H1913   1.084       .  S
C1909      C1910   1.413       .  A
C1910      N1911   1.439       .  S
N1911      H1915   1.046       .  S
N1911      H1916   1.046       .  S
N1914      H1917   1.045       .  S
N1914      H1918   1.046       .  S
C1919      C1920   1.408       .  A
C1919      C1924   1.398       .  A
C1919      H1926   1.084       .  S
C1920      C1921   1.418       .  A
C1921      C1922   1.408       .  A
C1921      N1928   1.438       .  S
C1922      C1923   1.401       .  A
C1922      H1927   1.084       .  S
C1923      C1924   1.413       .  A
C1924      N1925   1.440       .  S
N1925      H1929   1.045       .  S
N1925      H1930   1.043       .  S
N1928      H1931   1.046       .  S
N1928      H1932   1.046       .  S
C1933      C1934   1.401       .  A
C1933      C1938   1.407       .  A
C1933      H1940   1.084       .  S
C1934      C1935   1.410       .  A
C1934      C3334   1.483       .  S
C1935      C1936   1.405       .  A
C1935      N4126   1.438       .  S
C1936      C1937   1.408       .  A
C1936      H1941   1.083       .  S
C1937      C1938   1.417       .  A
C1938      N1939   1.432       .  S
N1939      H1943   1.046       .  S
N1939      H1944   1.045       .  S
N1942      C4119   1.439   1_455  S
N1942      H1945   1.046       .  S
N1942      H1946   1.045       .  S
C1947      C1948   1.399       .  A
C1947      C1952   1.403       .  A
C1947      H4138   1.084       .  S
C1948      C1949   1.415       .  A
C1949      C1950   1.402       .  A
C1949      N1956   1.439       .  S
C1950      C1951   1.406       .  A
C1950      H1955   1.084       .  S
C1951      C1952   1.413       .  A
C1952      N4137   1.438   1_455  S
N1953      C4136   1.438       .  S
N1953      H1957   1.046       .  S
N1953      H1958   1.045       .  S
H1954      C4131   1.084       .  S
N1956      H1959   1.044       .  S
N1956      H1960   1.045       .  S
C1961      C1962   1.406       .  A
C1961      C1966   1.400       .  A
C1961      H1968   1.084       .  S
C1962      C1963   1.414       .  A
C1963      C1964   1.402       .  A
C1963      N1970   1.432       .  S
C1964      C1965   1.403       .  A
C1964      H1969   1.084       .  S
C1965      C1966   1.408       .  A
C1966      N1967   1.433       .  S
N1967      H1971   1.045       .  S
N1967      H1972   1.046       .  S
N1970      H1973   1.046       .  S
N1970      H1974   1.045       .  S
C1975      C1976   1.406       .  A
C1975      C1980   1.398       .  A
C1975      H1982   1.084       .  S
C1976      C1977   1.415       .  A
C1977      C1978   1.403       .  A
C1977      N1984   1.432       .  S
C1978      C1979   1.401       .  A
C1978      H1983   1.084       .  S
C1979      C1980   1.411       .  A
C1980      N1981   1.433       .  S
N1981      H1985   1.044       .  S
N1981      H1986   1.046       .  S
N1984      H1987   1.045       .  S
N1984      H1988   1.046       .  S
C1989      C1990   1.403       .  A
C1989      C1994   1.403       .  A
C1989      H1996   1.084       .  S
C1990      C1991   1.411       .  A
C1991      C1992   1.406       .  A
C1991      N1998   1.438       .  S
C1992      C1993   1.407       .  A
C1992      H1997   1.083       .  S
C1993      C1994   1.414       .  A
C1994      N1995   1.433       .  S
N1995      H1999   1.046       .  S
N1995      H2000   1.045       .  S
N1998      H2001   1.047       .  S
N1998      H2002   1.044       .  S
C2003      C2004   1.407       .  A
C2003      C2008   1.401       .  A
C2003      H2010   1.084       .  S
C2004      C2005   1.418       .  A
C2005      C2006   1.408       .  A
C2005      N2012   1.438       .  S
C2006      C2007   1.401       .  A
C2006      H2011   1.084       .  S
C2007      C2008   1.407       .  A
C2008      N2009   1.433       .  S
N2009      H2013   1.046       .  S
N2009      H2014   1.045       .  S
N2012      H2015   1.046       .  S
N2012      H2016   1.046       .  S
C2017      C2018   1.406       .  A
C2017      C2022   1.399       .  A
C2017      H2024   1.084       .  S
C2018      C2019   1.415       .  A
C2019      C2020   1.403       .  A
C2019      N2026   1.433       .  S
C2020      C2021   1.401       .  A
C2020      H2025   1.084       .  S
C2021      C2022   1.413       .  A
C2022      N2023   1.433       .  S
N2023      H2027   1.044       .  S
N2023      H2028   1.045       .  S
N2026      H2029   1.045       .  S
N2026      H2030   1.046       .  S
C2031      C2032   1.402       .  A
C2031      C2036   1.405       .  A
C2031      H2038   1.084       .  S
C2032      C2033   1.414       .  A
C2033      C2034   1.397       .  A
C2033      N2040   1.433       .  S
C2034      C2035   1.402       .  A
C2034      H2039   1.084       .  S
C2035      C2036   1.412       .  A
C2036      N2037   1.438       .  S
N2037      H2041   1.044       .  S
N2037      H2042   1.047       .  S
N2040      H2043   1.046       .  S
N2040      H2044   1.044       .  S
C2045      C2050   1.401       .  A
C2045      H2052   1.084       .  S
C2046      C2047   1.408   1_565  A
C2047      C2048   1.404       .  A
C2047      N2054   1.432       .  S
C2048      C2049   1.407   1_545  A
C2048      H2053   1.084       .  S
C2050      N2051   1.433       .  S
N2051      H2055   1.045       .  S
N2051      H2056   1.046       .  S
N2054      H2057   1.045   1_545  S
N2054      H2058   1.046       .  S
C2059      C2060   1.402       .  A
C2059      C2064   1.403       .  A
C2059      H2066   1.084       .  S
C2060      C2061   1.412       .  A
C2061      C2062   1.400       .  A
C2061      N2068   1.433       .  S
C2062      C2063   1.408       .  A
C2062      H2067   1.084       .  S
C2063      C2064   1.413       .  A
C2064      N2065   1.432       .  S
N2065      H2069   1.046       .  S
N2065      H2070   1.045       .  S
N2068      H2071   1.045       .  S
N2068      H2072   1.045       .  S
C2073      C2074   1.405       .  A
C2073      C2078   1.402       .  A
C2073      H2080   1.084       .  S
C2074      C2075   1.414       .  A
C2075      C2076   1.404       .  A
C2075      N2082   1.438       .  S
C2076      C2077   1.401       .  A
C2076      H2081   1.084       .  S
C2077      C2078   1.415       .  A
C2078      N2079   1.439       .  S
N2079      H2083   1.045       .  S
N2079      H2084   1.044       .  S
N2082      H2085   1.046       .  S
N2082      H2086   1.046       .  S
C2087      C2092   1.407       .  A
C2087      H2094   1.084       .  S
C2088      C2089   1.415   1_565  A
C2089      C2090   1.397       .  A
C2089      N2096   1.440       .  S
C2090      C2091   1.405       .  A
C2090      H2095   1.084       .  S
C2092      N2093   1.438       .  S
N2093      H2097   1.046       .  S
N2093      H2098   1.046       .  S
N2096      H2099   1.043       .  S
N2096      H2100   1.045       .  S
C2101      C2102   1.399       .  A
C2101      C2106   1.401       .  A
C2101      H2108   1.084       .  S
C2102      C2103   1.408       .  A
C2103      C2104   1.405       .  A
C2103      N2110   1.438       .  S
C2104      C2105   1.407       .  A
C2104      H2109   1.083       .  S
C2105      C2106   1.414       .  A
C2106      N2107   1.432       .  S
N2107      H2111   1.045       .  S
N2107      H2112   1.046       .  S
N2110      H2113   1.047       .  S
N2110      H2114   1.044       .  S
C2115      C2116   1.400       .  A
C2115      C2120   1.403       .  A
C2115      H2122   1.084       .  S
C2116      C2117   1.408       .  A
C2117      C2118   1.398       .  A
C2117      N2124   1.432       .  S
C2118      C2119   1.409       .  A
C2118      H2123   1.083       .  S
C2119      C2120   1.417       .  A
C2120      N2121   1.433       .  S
N2121      H2125   1.045       .  S
N2121      H2126   1.047       .  S
N2124      H2127   1.046       .  S
N2124      H2128   1.044       .  S
C2129      C2130   1.403       .  A
C2129      C2134   1.401       .  A
C2129      H2136   1.084       .  S
C2130      C2131   1.414       .  A
C2131      C2132   1.400       .  A
C2131      N2138   1.433       .  S
C2132      C2133   1.405       .  A
C2132      H2137   1.084       .  S
C2133      C2134   1.408       .  A
C2134      N2135   1.432       .  S
N2135      H2139   1.045       .  S
N2135      H2140   1.046       .  S
N2138      H2141   1.043       .  S
N2138      H2142   1.046       .  S
C2143      C2144   1.399       .  A
C2143      C2148   1.399       .  A
C2143      H2150   1.084       .  S
C2144      C2145   1.406       .  A
C2144      C3279   1.479       .  S
C2145      C2146   1.403       .  A
C2145      N2152   1.432       .  S
C2146      C2147   1.408       .  A
C2146      H2151   1.084       .  S
C2147      C2148   1.423       .  A
C2148      N2149   1.432       .  S
N2149      H2153   1.043       .  S
N2149      H2154   1.045       .  S
N2152      H2155   1.045       .  S
N2152      H2156   1.046       .  S
C2157      C2158   1.402       .  A
C2157      C2162   1.399       .  A
C2157      H2164   1.084       .  S
C2158      C2159   1.406       .  A
C2159      C2160   1.403       .  A
C2159      N2166   1.432       .  S
C2160      C2161   1.408       .  A
C2160      H2165   1.084       .  S
C2161      C2162   1.420       .  A
C2162      N2163   1.433       .  S
N2163      H2167   1.046       .  S
N2163      H2168   1.044       .  S
N2166      H2169   1.045       .  S
N2166      H2170   1.046       .  S
C2171      C2172   1.403       .  A
C2171      C2176   1.407       .  A
C2171      H2178   1.084       .  S
C2172      C2173   1.414       .  A
C2173      C2174   1.396       .  A
C2173      N2180   1.433   1_455  S
C2174      C2175   1.403       .  A
C2174      H2179   1.084   1_455  S
C2175      C2176   1.414       .  A
C2176      N2177   1.438       .  S
N2177      H4365   1.048       .  S
N2177      H4366   1.044       .  S
N2180      H2183   1.043       .  S
N2180      H2184   1.045   1_655  S
H2181      N4361   1.045       .  S
H2182      N4361   1.046       .  S
C2185      C2186   1.401       .  A
C2185      C2190   1.407       .  A
C2185      C3250   1.480       .  S
C2186      C2187   1.399       .  A
C2186      H2191   1.084       .  S
C2187      C2188   1.401       .  A
C2188      C2189   1.403       .  A
C2189      C2190   1.404       .  A
C2189      C3264   1.478       .  S
C2190      H2193   1.084       .  S
C2194      C2195   1.404       .  A
C2194      C2199   1.404       .  A
C2194      C3222   1.481       .  S
C2195      C2196   1.405       .  A
C2195      H2200   1.083       .  S
C2196      C2197   1.403       .  A
C2196      C3208   1.480       .  S
C2197      C2198   1.400       .  A
C2197      H2201   1.084       .  S
C2198      C2199   1.402       .  A
C2198      C3194   1.480       .  S
C2199      H2202   1.084       .  S
C2203      C3296   1.404       .  A
C2203      C2208   1.405       .  A
C2203      C3183   1.485       .  S
C2204      C3295   1.409       .  A
C2204      C2205   1.404       .  A
C2204      H2209   1.083       .  S
C2205      C2206   1.401       .  A
C2205      C3152   1.480       .  S
C2206      C3299   1.400   1_545  A
C2206      H2210   1.084       .  S
C2207      C3298   1.402       .  A
C2207      C2208   1.401       .  A
C2207      C3169   1.473       .  S
C2208      H2211   1.084       .  S
C2212      C3155   1.489       .  S
C2212      N2213   1.358       .  A
C2212      N2217   1.360       .  A
N2213      C2214   1.357       .  A
C2214      C3197   1.488       .  S
C2214      N2215   1.359       .  A
N2215      C2216   1.359       .  A
C2216      C3239   1.493       .  S
C2216      N2217   1.362       .  A
C2218      C3311   1.400       .  A
C2218      C2223   1.402       .  A
C2218      C3138   1.475       .  S
C2219      C3310   1.405   1_545  A
C2219      C2220   1.401       .  A
C2219      H2224   1.084       .  S
C2220      C3313   1.401   1_545  A
C2220      C3127   1.475       .  S
C2221      C3312   1.402       .  A
C2221      C2222   1.403       .  A
C2221      H2225   1.084       .  S
C2222      C2223   1.402       .  A
C2222      C3113   1.478       .  S
C2223      H2226   1.083       .  S
C2227      C2228   1.410       .  A
C2227      C2232   1.404       .  A
C2227      C3082   1.487       .  S
C2228      C2229   1.407       .  A
C2228      H2233   1.083       .  S
C2229      C2230   1.402       .  A
C2229      C3099   1.483       .  S
C2230      C2231   1.396       .  A
C2230      H2234   1.084       .  S
C2231      C2232   1.399       .  A
C2231      C3071   1.474       .  S
C2232      H2235   1.084       .  S
C2236      C3110   1.484       .  S
C2236      N2237   1.358       .  A
C2236      N2241   1.356       .  A
N2237      C2238   1.359       .  A
C2238      C3068   1.484       .  S
C2238      N2239   1.357       .  A
N2239      C2240   1.357       .  A
C2240      C3054   1.484       .  S
C2240      N2241   1.356       .  A
C2242      C2243   1.405       .  A
C2242      C2247   1.400       .  A
C2243      C2244   1.406       .  A
C2244      C2245   1.400       .  A
C2244      C3040   1.476       .  S
C2245      C2246   1.401       .  A
C2245      H2249   1.084       .  S
C2246      C2247   1.400       .  A
C2246      C3057   1.476       .  S
C2247      H2250   1.084       .  S
Zn2251     O2255   1.965       .  S
Zn2251     O2256   2.017       .  S
Zn2251     O2260   2.029   1_554  S
Zn2252     O3347   1.959   1_545  S
Zn2252     O2257   2.002   1_554  S
Zn2252     O2259   2.019       .  S
Zn2252     O2263   2.027       .  S
Zn2253     O2255   1.961   1_556  S
Zn2253     O2258   2.017       .  S
Zn2253     O3353   2.018       .  S
Zn2254     O2262   2.004   1_554  S
Zn2254     O2266   2.012       .  S
O2255     Zn3344   1.960       .  S
O2256      C2268   1.274       .  A
O2257      C2269   1.273       .  A
O2258      C2270   1.274       .  A
O2259      C3360   1.274   1_545  A
O2260      C2270   1.275       .  A
O2261     Zn3345   2.028   1_545  S
O2261      C2269   1.274       .  A
O2262      C2271   1.272       .  A
O2263      C2272   1.274       .  A
O2264      C2271   1.274       .  A
O2265      C2272   1.274       .  A
O2266      C2273   1.271       .  A
O2267      C2273   1.274       .  A
C2268      C3180   1.470       .  S
C2268      O3351   1.274       .  A
C2269      C3096   1.487       .  S
C2270      C3043   1.488       .  S
C2271      C3141   1.485       .  S
C2272      C3267   1.478       .  S
C2273      C3225   1.477       .  S
C2274      C2275   1.403       .  A
C2274      C2279   1.400       .  A
C2274      C3015   1.474       .  S
C2275      C2276   1.408       .  A
C2275      H2280   1.083       .  S
C2276      C2277   1.405       .  A
C2276      C2998   1.489       .  S
C2277      C2278   1.401       .  A
C2277      H2281   1.084       .  S
C2278      C2279   1.400       .  A
C2278      C2984   1.477       .  S
C2279      H2282   1.084       .  S
C2283      C2284   1.403       .  A
C2283      C2288   1.402       .  A
C2283      C2970   1.474       .  S
C2284      C3377   1.403       .  A
C2284      H2289   1.084       .  S
C2285      C3376   1.407   1_545  A
C2285      C2286   1.406       .  A
C2285      C2956   1.488       .  S
C2286      C3379   1.401   1_545  A
C2286      H2290   1.084       .  S
C2287      C3378   1.399       .  A
C2287      C2288   1.399       .  A
C2287      C2942   1.476       .  S
C2288      H2291   1.084       .  S
C2292      C2293   1.407       .  A
C2292      C2297   1.404       .  A
C2293      C2294   1.405       .  A
C2293      H2298   1.083       .  S
C2294      C2295   1.404       .  A
C2294      C2914   1.483       .  S
C2295      C2296   1.400       .  A
C2295      H2299   1.084       .  S
C2296      C2297   1.398       .  A
C2296      C2900   1.473       .  S
C2301      N2302   1.358       .  A
C2301      N2306   1.360       .  A
N2302      C3395   1.358       .  A
C2303      C2903   1.481       .  S
C2303      N3394   1.356   1_545  A
C2303      N2304   1.360       .  A
N2304      C3397   1.361   1_545  A
C2305      C2945   1.486       .  S
C2305      N3396   1.357       .  A
C2305      N2306   1.360       .  A
Zn2307     O2311   1.958       .  S
Zn2307     O2312   2.021       .  S
Zn2307     O2316   2.012       .  S
Zn2307     O2323   2.013       .  S
Zn2308     O2311   1.965       .  S
Zn2308     O2313   2.015       .  S
Zn2308     O2315   2.032       .  S
Zn2308     O2319   2.037       .  S
Zn2309     O2311   1.968       .  S
Zn2309     O2314   2.027       .  S
Zn2309     O2317   2.020       .  S
Zn2309     O2320   2.025       .  S
Zn2310     O2311   1.953       .  S
Zn2310     O2318   2.013       .  S
Zn2310     O2321   2.000       .  S
Zn2310     O2322   2.009       .  S
O2312      C2324   1.272       .  A
O2313      C2325   1.273       .  A
O2314      C2326   1.274       .  A
O2315      C2324   1.275       .  A
O2316      C2326   1.275       .  A
O2317      C2325   1.274       .  A
O2318      C2327   1.272       .  A
O2319      C2328   1.276       .  A
O2320      C2327   1.274       .  A
O2321      C2328   1.272       .  A
O2322      C2329   1.273       .  A
O2323      C2329   1.272       .  A
C2324      C2928   1.476       .  S
C2325      C3124   1.480       .  S
C2326      C3029   1.491       .  S
C2327      C3085   1.489       .  S
C2328      C2959   1.486       .  S
C2329      C3001   1.483       .  S
C2330      C2331   1.406       .  A
C2330      C2335   1.404       .  A
C2330      C2872   1.483       .  S
C2331      C2332   1.405       .  A
C2331      H2336   1.084       .  S
C2332      C2333   1.406       .  A
C2332      C2889   1.489       .  S
C2333      C2334   1.402       .  A
C2333      H2337   1.084       .  S
C2334      C2335   1.401       .  A
C2334      C2858   1.483       .  S
C2335      H2338   1.084       .  S
C2339      C2340   1.404       .  A
C2339      C2344   1.408       .  A
C2339      C2847   1.488       .  S
C2341      C2816   1.477   1_455  S
C2342      C2343   1.405       .  A
C2342      H2346   1.084       .  S
C2343      C2344   1.408       .  A
C2343      C2833   1.488       .  S
C2344      H2347   1.083       .  S
C2348      C3441   1.402       .  A
C2348      C2353   1.404       .  A
C2348      C2802   1.478       .  S
C2349      C3440   1.400   1_545  A
C2349      C2350   1.395       .  A
C2349      H2354   1.084       .  S
C2350      C3443   1.396       .  A
C2350      C2774   1.468       .  S
C2351      C3442   1.398       .  A
C2351      C2352   1.405       .  A
C2351      H3447   1.084       .  S
C2352      C2353   1.407       .  A
C2352      C2791   1.483       .  S
C2353      H2356   1.083       .  S
H2355      C3443   1.083       .  S
C2357      C2819   1.486       .  S
C2357      N2358   1.362       .  A
C2357      N2362   1.354       .  A
N2358      C2359   1.362       .  A
C2359      C2861   1.492       .  S
C2359      N2360   1.358       .  A
N2360      C2361   1.355       .  A
C2361      C2777   1.474       .  S
C2361      N2362   1.353       .  A
Zn2363     O2367   1.956       .  S
Zn2363     O2368   2.022       .  S
Zn2363     O2372   2.018       .  S
Zn2363     O2379   2.011       .  S
Zn2364     O2367   1.962       .  S
Zn2364     O2369   2.031       .  S
Zn2364     O2371   2.024       .  S
Zn2364     O2375   2.016       .  S
Zn2365     O2367   1.955       .  S
Zn2365     O2370   2.007       .  S
Zn2365     O2373   2.006       .  S
Zn2365     O2376   2.012       .  S
Zn2366     O2367   1.958       .  S
Zn2366     O2374   2.008       .  S
Zn2366     O2377   2.002       .  S
Zn2366     O2378   2.026       .  S
O2368      C2380   1.275       .  A
O2369      C2381   1.275       .  A
O2370      C2382   1.272       .  A
O2371      C2380   1.276       .  A
O2372      C2382   1.273       .  A
O2373      C2381   1.273       .  A
O2374      C2383   1.272       .  A
O2375      C2384   1.273       .  A
O2376      C2383   1.272       .  A
O2377      C2384   1.273       .  A
O2378      C2385   1.274       .  A
O2379      C2385   1.273       .  A
C2380      C2917   1.491       .  S
C2381      C3012   1.491       .  S
C2382      C2875   1.470       .  S
C2383      C2788   1.468       .  S
C2384      C2973   1.485       .  S
C2385      C2830   1.483       .  S
C2386      C2387   1.404       .  A
C2386      C2391   1.405       .  A
C2386      C2746   1.482       .  S
C2387      C2388   1.401       .  A
C2387      H2392   1.084       .  S
C2388      C2389   1.400       .  A
C2388      C2763   1.470       .  S
C2389      C2390   1.402       .  A
C2389      H2393   1.084       .  S
C2390      C2391   1.402       .  A
C2390      C2732   1.479       .  S
C2391      H2394   1.084       .  S
C2395      C2396   1.405       .  A
C2395      C2400   1.410       .  A
C2395      C2721   1.487       .  S
C2396      C2397   1.400       .  A
C2396      H2401   1.084       .  S
C2397      C2398   1.399       .  A
C2397      C2693   1.479       .  S
C2398      C2399   1.401       .  A
C2398      H2402   1.084       .  S
C2399      C2400   1.409       .  A
C2404      C2405   1.402       .  A
C2404      C3501   1.404   1_545  A
C2404      C2665   1.477       .  S
C2405      C2406   1.404   1_545  A
C2405      H2410   1.084       .  S
C2406      C3499   1.405       .  A
C2406      C3768   1.481   1_565  S
C2407      C3498   1.402       .  A
C2407      C2408   1.401       .  A
C2407      H2411   1.084       .  S
C2408      C2409   1.405       .  A
C2408      C2648   1.483       .  S
C2409      C3496   1.406       .  A
C2409      H2412   1.083       .  S
C2413      C2690   1.487       .  S
C2413      N2414   1.358       .  A
C2413      N2418   1.361       .  A
N2414      C2415   1.356       .  A
C2415      C2735   1.487       .  S
C2415      N2416   1.357       .  A
N2416      C2417   1.359       .  A
C2417      C2651   1.493       .  S
C2417      N2418   1.360       .  A
Zn2419     O2423   1.959       .  S
Zn2419     O3516   2.012       .  S
Zn2419     O2435   2.018       .  S
Zn2420     O3515   1.965   1_545  S
Zn2420     O2427   2.025       .  S
Zn2420     O2431   2.030       .  S
Zn2421     O2426   2.005       .  S
Zn2421     O2429   2.008       .  S
Zn2422     O2423   1.954       .  S
Zn2422     O2430   2.019       .  S
Zn2422     O3525   2.012       .  S
Zn2422     O2434   2.018       .  S
O2423     Zn3512   1.958       .  S
O2424     Zn3511   2.028   1_545  S
O2424      C2436   1.275       .  A
O2425      C3529   1.272   1_545  A
O2426      C2438   1.272       .  A
O2427      C2436   1.275       .  A
O2428      C2438   1.274       .  A
O2429      C2437   1.272       .  A
O2430      C2439   1.274       .  A
O2431      C2440   1.275       .  A
O2432      C2439   1.274       .  A
O2433     Zn3514   2.016   1_545  S
O2433      C2440   1.275       .  A
O2434      C2441   1.275       .  A
O2435      C2441   1.273       .  A
C2436      C2718   1.493       .  S
C2437      C2805   1.478       .  S
C2437      O3517   1.274       .  A
C2438      C2760   1.485       .  S
C2439      C2844   1.486       .  S
C2440      C2886   1.489       .  S
C2441      C2679   1.493       .  S
C2442      C2443   1.404       .  A
C2442      C3539   1.407       .  A
C2442      C2634   1.483       .  S
C2443      C3536   1.399       .  A
C2443      H2448   1.084       .  S
C2444      C3535   1.398       .  A
C2444      C2445   1.397       .  A
C2444      C2606   1.476       .  S
C2445      C2446   1.402       .  A
C2445      H2449   1.084       .  S
C2446      C2447   1.406       .  A
C2446      C2623   1.480       .  S
C2447      C3534   1.407       .  A
C2447      H2450   1.083       .  S
C2451      C2452   1.404       .  A
C2451      C2456   1.400       .  A
C2451      C2578   1.483       .  S
C2452      C2453   1.410       .  A
C2452      H2457   1.083       .  S
C2453      C2454   1.413       .  A
C2453      C2592   1.501       .  S
C2454      C2455   1.406       .  A
C2454      H2458   1.080       .  S
C2455      C2456   1.400       .  A
C2455      C2567   1.485       .  S
C2456      H2459   1.084       .  S
C2460      C2461   1.408       .  A
C2460      C2465   1.409       .  A
C2461      C2462   1.402       .  A
C2462      C2463   1.396       .  A
C2462      C2525   1.477       .  S
C2463      C2464   1.400       .  A
C2463      H2467   1.084       .  S
C2464      C2465   1.407       .  A
C2464      C2553   1.480       .  S
C2465      H2468   1.083       .  S
C2469      C2564   1.490       .  S
C2469      N2470   1.358       .  A
C2469      N3566   1.359   1_545  A
N2470      C3563   1.358   1_545  A
C2471      N3562   1.360       .  A
C2471      N2472   1.355       .  A
N2472      C2473   1.355       .  A
C2473      C2522   1.481       .  S
C2473      N2474   1.359       .  A
N2474      C3561   1.360       .  A
Zn2475     O2479   1.955       .  S
Zn2475     O2480   2.013       .  S
Zn2475     O2484   2.014       .  S
Zn2475     O2491   2.017       .  S
Zn2476     O2479   1.950       .  S
Zn2476     O2481   2.005       .  S
Zn2476     O2483   1.998       .  S
Zn2476     O2487   1.997       .  S
Zn2477     O2479   1.957       .  S
Zn2477     O2482   2.014       .  S
Zn2477     O2485   2.019       .  S
Zn2477     O2488   2.010       .  S
Zn2478     O2479   1.958       .  S
Zn2478     O2486   2.016       .  S
Zn2478     O2489   2.015       .  S
Zn2478     O2490   2.021       .  S
O2480      C2492   1.273       .  A
O2481      C2493   1.272       .  A
O2482      C2494   1.274       .  A
O2483      C2492   1.271       .  A
O2484      C2494   1.273       .  A
O2485      C2493   1.273       .  A
O2486      C2495   1.273       .  A
O2487      C2496   1.271       .  A
O2488      C2495   1.274       .  A
O2489      C2496   1.273       .  A
O2490      C2497   1.275       .  A
O2491      C2497   1.272       .  A
C2492      C2620   1.479       .  S
C2493      C3166   1.480       .  S
C2494      C3211   1.488       .  S
C2495      C3253   1.487       .  S
C2496      C2550   1.475       .  S
C2497      C2581   1.485       .  S
Zn2498     O2502   1.966       .  S
Zn2498     O2503   2.023       .  S
Zn2498     O2507   2.047       .  S
Zn2498     O2514   2.017       .  S
Zn2499     O2502   1.964       .  S
Zn2499     O2504   2.025       .  S
Zn2499     O2506   2.015       .  S
Zn2499     O2510   2.029       .  S
Zn2500     O2502   1.957       .  S
Zn2500     O2505   2.013       .  S
Zn2500     O2508   2.014       .  S
Zn2500     O2511   2.013       .  S
Zn2501     O2502   1.962       .  S
Zn2501     O2509   2.007       .  S
Zn2501     O2512   2.022       .  S
Zn2501     O2513   2.020       .  S
O2503      C2515   1.275       .  A
O2504      C2516   1.274       .  A
O2505      C2517   1.273       .  A
O2506      C2515   1.274       .  A
O2507      C2517   1.276       .  A
O2508      C2516   1.274       .  A
O2509      C2518   1.272       .  A
O2510      C2519   1.275       .  A
O2511      C2518   1.272       .  A
O2512      C2519   1.273       .  A
O2513      C2520   1.274       .  A
O2514      C2520   1.274       .  A
C2515      C2749   1.486       .  S
C2516      C2662   1.492       .  S
C2517      C2595   1.487       .  S
C2518      C2637   1.469       .  S
C2519      C2707   1.496       .  S
C2520      C2536   1.475       .  S
C2521      C2522   1.405       .  A
C2521      C2526   1.398       .  A
C2521      H2528   1.084       .  S
C2522      C2523   1.416       .  A
C2523      C2524   1.405       .  A
C2524      C2525   1.400       .  A
C2525      C2526   1.413       .  A
C2526      N2527   1.433       .  S
N2527      H2531   1.044       .  S
N2527      H2532   1.046       .  S
N2530      H2533   1.047       .  S
N2530      H2534   1.045       .  S
C2535      C2536   1.400       .  A
C2535      C2540   1.401       .  A
C2535      H2542   1.084       .  S
C2536      C2537   1.411       .  A
C2537      C2538   1.408       .  A
C2537      N2544   1.438       .  S
C2538      C2539   1.408       .  A
C2538      H2543   1.083       .  S
C2539      C2540   1.413       .  A
C2540      N2541   1.433       .  S
N2541      H2545   1.046       .  S
N2541      H2546   1.045   1_655  S
N2544      H2547   1.046       .  S
N2544      H2548   1.045       .  S
C2549      C2550   1.404       .  A
C2549      C2554   1.406       .  A
C2549      H2556   1.084       .  S
C2550      C2551   1.412       .  A
C2551      C2552   1.402       .  A
C2551      N2558   1.439       .  S
C2552      C2553   1.404       .  A
C2552      H2557   1.084       .  S
C2553      C2554   1.410       .  A
C2554      N2555   1.437       .  S
N2555      H2559   1.046       .  S
N2555      H2560   1.046       .  S
N2558      H2561   1.046       .  S
N2558      H2562   1.046       .  S
C2563      C2564   1.408       .  A
C2563      C2568   1.401       .  A
C2563      H2570   1.083       .  S
C2564      C2565   1.415       .  A
C2565      C2566   1.402       .  A
C2565      N2572   1.433       .  S
C2566      C2567   1.403       .  A
C2566      H2571   1.084       .  S
C2567      C2568   1.413       .  A
C2568      N2569   1.433       .  S
N2569      H2573   1.043       .  S
N2569      H2574   1.046       .  S
N2572      H2575   1.046       .  S
N2572      H2576   1.045       .  S
C2577      C2578   1.402       .  A
C2577      C2582   1.400       .  A
C2577      H2584   1.084       .  S
C2578      C2579   1.411       .  A
C2579      C2580   1.405       .  A
C2579      N2586   1.438       .  S
C2580      C2581   1.406       .  A
C2580      H2585   1.084       .  S
C2581      C2582   1.419       .  A
C2582      N2583   1.433       .  S
N2583      H2587   1.045       .  S
N2583      H2588   1.045       .  S
N2586      H2589   1.044       .  S
N2586      H2590   1.047       .  S
C2591      C2592   1.409       .  A
C2591      C2596   1.407       .  A
C2591      H2598   1.083       .  S
C2592      C2593   1.413       .  A
C2593      C2594   1.403       .  A
C2593      N2600   1.432       .  S
C2594      C2595   1.404       .  A
C2594      H2599   1.084       .  S
C2595      C2596   1.421       .  A
C2596      N2597   1.440       .  S
N2597      H2601   1.043       .  S
N2597      H2602   1.043       .  S
N2600      H2603   1.045       .  S
N2600      H2604   1.047       .  S
C2605      C2606   1.403       .  A
C2605      C2610   1.403       .  A
C2605      H2612   1.084       .  S
C2606      C3699   1.415       .  A
C2607      C3698   1.417       .  A
C2607      C2608   1.403       .  A
C2607      N2614   1.440       .  S
C2608      C3701   1.407       .  A
C2608      H2613   1.084       .  S
C2609      C3700   1.405       .  A
C2609      C2610   1.415       .  A
C2610      N2611   1.438       .  S
N2611      H2615   1.046       .  S
N2611      H2616   1.046       .  S
N2614      H2617   1.043       .  S
N2614      H2618   1.045       .  S
C2619      C2620   1.406       .  A
C2619      C2624   1.405       .  A
C2619      H2626   1.084       .  S
C2620      C2621   1.412       .  A
C2621      C2622   1.402       .  A
C2621      N2628   1.438       .  S
C2622      C2623   1.404       .  A
C2622      H2627   1.084       .  S
C2623      C2624   1.410       .  A
C2624      N2625   1.438       .  S
N2625      H2629   1.046       .  S
N2625      H3722   1.045       .  S
N2628      H2631   1.046       .  S
N2628      H2632   1.045       .  S
H2630      N3717   1.045   1_545  S
C2633      C2634   1.404       .  A
C2633      C2638   1.402       .  A
C2633      H2640   1.084       .  S
C2634      C2635   1.412       .  A
C2635      C2636   1.402       .  A
C2635      N2642   1.438       .  S
C2636      C2637   1.401       .  A
C2636      H2641   1.084       .  S
C2637      C2638   1.417       .  A
C2638      N2639   1.439       .  S
N2639      H2643   1.046       .  S
N2639      H2644   1.042       .  S
N2642      H2645   1.045       .  S
N2642      H2646   1.046       .  S
C2647      C2648   1.404       .  A
C2647      C2652   1.409       .  A
C2647      H2654   1.084       .  S
C2648      C2649   1.411       .  A
C2649      C2650   1.397       .  A
C2649      N2656   1.433       .  S
C2650      C2651   1.408       .  A
C2650      H2655   1.083       .  S
C2651      C2652   1.419       .  A
C2652      N2653   1.438       .  S
N2653      H2657   1.046       .  S
N2653      H2658   1.045       .  S
N2656      H2659   1.046       .  S
N2656      H2660   1.043       .  S
C2661      C2662   1.409       .  A
C2661      C2666   1.398       .  A
C2661      H2668   1.084       .  S
C2662      C2663   1.420       .  A
C2663      C2664   1.409       .  A
C2663      N2670   1.438       .  S
C2664      C2665   1.400       .  A
C2664      H2669   1.084       .  S
C2665      C2666   1.408       .  A
C2666      N2667   1.432       .  S
N2667      H2671   1.046       .  S
N2667      H2672   1.045       .  S
N2670      H2673   1.045       .  S
N2670      H2674   1.047       .  S
C2675      C2676   1.400       .  A
C2675      C2680   1.408       .  A
C2675      H2682   1.084       .  S
C2676      C3769   1.409       .  A
C2676      C3498   1.477       .  S
C2677      C3768   1.412   1_565  A
C2677      C3770   1.399       .  A
C2677      N2684   1.433       .  S
C2678      C3769   1.397       .  A
C2678      C2679   1.409       .  A
C2678      H3775   1.083       .  S
C2679      C2680   1.421       .  A
C2680      N2681   1.438       .  S
N2681      H3777   1.047       .  S
N2681      H2686   1.045       .  S
H2683      C3770   1.084       .  S
N2684      H3779   1.046   1_565  S
N2684      H3780   1.044       .  S
H2685      N3773   1.045       .  S
H2687      N3776   1.045       .  S
H2688      N3776   1.045       .  S
C2689      C2690   1.406       .  A
C2689      C2694   1.404       .  A
C2689      H2696   1.083       .  S
C2690      C2691   1.418       .  A
C2691      C2692   1.405       .  A
C2691      N2698   1.438       .  S
C2692      C2693   1.400       .  A
C2692      H2697   1.084       .  S
C2693      C2694   1.409       .  A
C2694      N2695   1.438       .  S
N2695      H2699   1.047       .  S
N2695      H2700   1.044       .  S
N2698      H2701   1.047       .  S
N2698      H2702   1.044       .  S
C2703      C2704   1.400       .  A
C2703      C2708   1.407       .  A
C2704      C2705   1.410       .  A
C2705      C2706   1.401       .  A
C2705      N2712   1.433       .  S
C2706      C2707   1.411       .  A
C2706      H2711   1.083       .  S
C2707      C2708   1.420       .  A
C2708      N2709   1.438       .  S
N2709      H2713   1.047       .  S
N2709      H2714   1.044       .  S
N2712      H2715   1.045       .  S
N2712      H2716   1.045       .  S
C2717      C2718   1.410       .  A
C2717      C2722   1.411       .  A
C2717      H2724   1.083       .  S
C2718      C2719   1.413       .  A
C2719      C2720   1.402       .  A
C2719      N2726   1.433       .  S
C2720      C2721   1.403       .  A
C2720      H2725   1.084       .  S
C2721      C2722   1.411       .  A
C2722      N2723   1.438       .  S
N2723      H2727   1.046       .  S
N2723      H2728   1.045       .  S
N2726      H2729   1.046       .  S
N2726      H2730   1.046       .  S
C2731      C2732   1.402       .  A
C2731      C2736   1.404       .  A
C2731      H2738   1.084       .  S
C2732      C2733   1.407       .  A
C2733      C2734   1.401       .  A
C2733      N2740   1.433       .  S
C2734      C2735   1.407       .  A
C2734      H2739   1.083       .  S
C2735      C2736   1.415       .  A
C2736      N2737   1.432       .  S
N2737      H2741   1.046       .  S
N2737      H2742   1.045       .  S
N2740      H2743   1.045       .  S
N2740      H2744   1.046       .  S
C2745      C2746   1.402       .  A
C2745      C2750   1.407       .  A
C2745      H2752   1.084       .  S
C2746      C2747   1.408       .  A
C2747      C2748   1.401       .  A
C2747      N2754   1.433       .  S
C2748      C2749   1.405       .  A
C2748      H2753   1.084       .  S
C2749      C2750   1.417       .  A
C2750      N2751   1.438       .  S
N2751      H2755   1.045       .  S
N2751      H2756   1.046       .  S
N2754      H2757   1.046       .  S
N2754      H2758   1.045       .  S
C2759      C2760   1.407       .  A
C2759      C2764   1.398       .  A
C2759      H2766   1.084       .  S
C2760      C2761   1.418       .  A
C2761      C2762   1.405       .  A
C2761      N2768   1.438       .  S
C2762      C2763   1.398       .  A
C2762      H2767   1.084       .  S
C2763      C2764   1.408       .  A
C2764      N2765   1.432       .  S
N2765      H2769   1.045       .  S
N2765      H2770   1.045       .  S
N2768      H2771   1.044       .  S
N2768      H2772   1.047       .  S
C2773      C2774   1.399       .  A
C2773      C2778   1.395       .  A
C2773      H2780   1.084       .  S
C2774      C2775   1.406       .  A
C2775      C2776   1.404       .  A
C2775      N2782   1.437       .  S
C2776      C2777   1.405       .  A
C2776      H2781   1.084       .  S
C2777      C2778   1.417       .  A
C2778      N2779   1.433       .  S
N2779      H2783   1.046       .  S
N2779      H2784   1.042       .  S
N2782      H2785   1.047       .  S
N2782      H2786   1.044       .  S
C2787      C2788   1.400       .  A
C2787      C2792   1.400       .  A
C2787      H2794   1.084       .  S
C2788      C2789   1.409       .  A
C2789      C2790   1.406       .  A
C2789      N2796   1.438       .  S
C2790      C2791   1.405       .  A
C2790      H2795   1.084       .  S
C2791      C2792   1.411       .  A
C2792      N2793   1.433       .  S
N2793      H2797   1.045       .  S
N2793      H2798   1.046       .  S
N2796      H2799   1.046       .  S
N2796      H2800   1.045       .  S
C2801      C2802   1.402       .  A
C2801      C2806   1.397       .  A
C2801      H2808   1.084       .  S
C2802      C2803   1.413       .  A
C2803      C2804   1.400       .  A
C2803      N2810   1.433       .  S
C2804      C2805   1.405       .  A
C2804      H2809   1.084       .  S
C2805      C2806   1.415       .  A
C2806      N2807   1.433       .  S
N2807      H2811   1.043       .  S
N2807      H2812   1.047       .  S
N2810      H2813   1.047       .  S
N2810      H2814   1.043       .  S
C2815      C2816   1.399       .  A
C2815      C2820   1.398       .  A
C2815      H2822   1.084       .  S
C2816      C2817   1.410       .  A
C2817      C2818   1.404       .  A
C2817      N2824   1.438       .  S
C2818      C2819   1.405       .  A
C2818      H2823   1.083       .  S
C2819      C2820   1.422       .  A
C2820      N2821   1.433       .  S
N2821      H2825   1.046       .  S
N2821      H2826   1.042       .  S
N2824      H2827   1.045       .  S
N2824      H2828   1.046       .  S
C2829      C2830   1.404       .  A
C2829      C2834   1.402       .  A
C2829      H2836   1.084       .  S
C2830      C2831   1.414       .  A
C2831      C2832   1.408       .  A
C2831      N2838   1.438       .  S
C2832      C2833   1.405       .  A
C2832      H2837   1.083       .  S
C2833      C2834   1.410       .  A
C2834      N2835   1.433       .  S
N2835      H2839   1.046       .  S
N2835      H2840   1.046       .  S
N2838      H2841   1.046       .  S
N2838      H2842   1.045       .  S
C2843      C2844   1.406       .  A
C2843      C2848   1.404       .  A
C2843      H2850   1.084       .  S
C2844      C2845   1.413       .  A
C2845      C2846   1.404       .  A
C2845      N2852   1.432       .  S
C2846      C2847   1.403       .  A
C2846      H2851   1.084       .  S
C2847      C2848   1.412       .  A
C2848      N2849   1.433       .  S
N2849      H2853   1.046       .  S
N2849      H2854   1.046       .  S
N2852      H2855   1.046       .  S
N2852      H2856   1.046       .  S
C2857      C2858   1.402       .  A
C2857      C2862   1.401       .  A
C2857      H2864   1.084       .  S
C2858      C2859   1.418       .  A
C2859      C2860   1.404       .  A
C2859      N2866   1.439       .  S
C2860      C2861   1.407       .  A
C2860      H2865   1.083       .  S
C2861      C2862   1.416       .  A
C2862      N2863   1.433       .  S
N2863      H2867   1.046       .  S
N2863      H2868   1.046       .  S
N2866      H2869   1.043       .  S
N2866      H2870   1.045       .  S
C2871      C2872   1.405       .  A
C2871      C2876   1.404       .  A
C2871      H2878   1.084       .  S
C2872      C2873   1.413       .  A
C2873      C2874   1.406       .  A
C2873      N2880   1.438       .  S
C2874      C2875   1.401       .  A
C2874      H2879   1.084       .  S
C2875      C2876   1.408       .  A
C2876      N2877   1.438       .  S
N2877      H2881   1.046       .  S
N2877      H2882   1.046       .  S
N2880      H2883   1.046       .  S
N2880      H2884   1.045       .  S
C2885      C2886   1.406       .  A
C2885      C2890   1.404       .  A
C2885      H2892   1.083       .  S
C2886      C2887   1.416       .  A
C2887      C2888   1.409       .  A
C2887      N2894   1.438       .  S
C2888      C2889   1.405       .  A
C2888      H2893   1.084       .  S
C2889      C2890   1.412       .  A
C2890      N2891   1.438       .  S
N2891      H2895   1.045       .  S
N2891      H2896   1.046       .  S
N2894      H2897   1.045       .  S
N2894      H2898   1.046       .  S
C2899      C2900   1.401       .  A
C2899      C2904   1.403       .  A
C2899      H2906   1.084       .  S
C2900      C2901   1.410       .  A
C2901      C2902   1.397       .  A
C2902      C2903   1.407       .  A
C2903      C2904   1.412       .  A
C2904      N2905   1.432       .  S
N2905      H2909   1.046       .  S
N2905      H2910   1.045       .  S
N2908      H2911   1.046       .  S
N2908      H2912   1.044       .  S
C2913      C2914   1.402       .  A
C2913      C2918   1.404       .  A
C2913      H2920   1.084       .  S
C2914      C2915   1.408       .  A
C2915      C2916   1.404       .  A
C2915      N2922   1.432       .  S
C2916      C2917   1.408       .  A
C2916      H2921   1.083       .  S
C2917      C2918   1.416       .  A
C2918      N2919   1.432       .  S
N2919      H2923   1.046       .  S
N2919      H2924   1.045       .  S
N2922      H2925   1.046       .  S
N2922      H2926   1.045       .  S
C2927      C2928   1.402       .  A
C2927      C2932   1.409       .  A
C2927      H2934   1.084       .  S
C2928      C2929   1.407       .  A
C2929      C2930   1.406       .  A
C2929      N2936   1.438       .  S
C2930      C2931   1.408       .  A
C2931      C2932   1.415       .  A
C2932      N2933   1.438       .  S
N2933      H2937   1.045       .  S
N2933      H2938   1.046       .  S
N2936      H2939   1.046       .  S
N2936      H2940   1.046       .  S
C2941      C2942   1.401       .  A
C2941      C2946   1.403       .  A
C2941      H2948   1.084       .  S
C2942      C4035   1.412       .  A
C2943      C4034   1.414   1_545  A
C2943      C2944   1.400       .  A
C2943      N2950   1.433       .  S
C2944      C4037   1.406   1_545  A
C2944      H2949   1.084       .  S
C2945      C4036   1.408       .  A
C2945      C2946   1.413       .  A
C2946      N2947   1.432       .  S
N2947      H2951   1.046       .  S
N2947      H2952   1.045       .  S
N2950      H2953   1.046       .  S
N2950      H2954   1.043       .  S
C2955      C2956   1.404       .  A
C2955      C2960   1.403       .  A
C2955      H2962   1.084       .  S
C2956      C2957   1.413       .  A
C2957      C2958   1.409       .  A
C2957      N2964   1.438       .  S
C2958      C2959   1.406       .  A
C2958      H2963   1.083       .  S
C2959      C2960   1.415       .  A
C2960      N2961   1.439       .  S
N2961      H2965   1.045       .  S
N2961      H2966   1.046       .  S
N2964      H2967   1.045   1_545  S
N2964      H2968   1.046       .  S
C2969      C2970   1.401       .  A
C2969      C2974   1.403       .  A
C2969      H2976   1.084       .  S
C2970      C2971   1.406       .  A
C2971      C2972   1.399       .  A
C2971      N2978   1.433       .  S
C2972      C2973   1.407       .  A
C2972      H2977   1.084       .  S
C2973      C2974   1.415       .  A
C2974      N2975   1.432       .  S
N2975      H2979   1.046       .  S
N2975      H2980   1.046       .  S
N2978      H2981   1.045       .  S
N2978      H2982   1.046       .  S
C2983      C2984   1.402       .  A
C2983      C2988   1.402       .  A
C2983      H2990   1.084       .  S
C2984      C2985   1.412       .  A
C2985      C2986   1.398       .  A
C2985      N2992   1.433       .  S
C2986      C2987   1.407       .  A
C2986      H2991   1.084       .  S
C2987      C2988   1.412       .  A
N2989      H2993   1.046       .  S
N2989      H2994   1.046       .  S
N2992      H2995   1.045       .  S
N2992      H2996   1.044       .  S
C2997      C2998   1.407       .  A
C2997      C3002   1.405       .  A
C2997      H3004   1.083       .  S
C2998      C2999   1.413       .  A
C2999      C3000   1.404       .  A
C2999      N3006   1.438       .  S
C3000      C3001   1.405       .  A
C3000      H3005   1.084       .  S
C3001      C3002   1.413       .  A
C3002      N3003   1.438       .  S
N3003      H3007   1.046       .  S
N3003      H3008   1.045       .  S
N3006      H3009   1.045       .  S
N3006      H3010   1.046       .  S
C3011      C3012   1.409       .  A
C3011      C3016   1.397       .  A
C3011      H3018   1.084       .  S
C3012      C3013   1.419       .  A
C3013      C3014   1.409       .  A
C3013      N3020   1.438       .  S
C3014      C3015   1.401       .  A
C3014      H3019   1.084       .  S
C3015      C3016   1.407       .  A
C3016      N3017   1.433       .  S
N3017      H3021   1.046       .  S
N3017      H3022   1.045       .  S
N3020      H3023   1.046       .  S
N3020      H3024   1.046       .  S
C3025      C3026   1.403       .  A
C3025      C3030   1.407       .  A
C3025      H3032   1.084       .  S
C3026      C3027   1.410       .  A
C3027      C3028   1.402       .  A
C3028      C3029   1.407       .  A
C3028      H3033   1.083       .  S
C3029      C3030   1.416       .  A
C3030      N3031   1.432       .  S
N3031      H3035   1.046       .  S
N3031      H3036   1.045       .  S
N3034      H3037   1.046       .  S
N3034      H3038   1.046       .  S
C3039      C3040   1.400       .  A
C3039      C3044   1.408       .  A
C3040      C3041   1.409       .  A
C3041      C3042   1.399       .  A
C3041      N3048   1.433       .  S
C3042      C3043   1.408       .  A
C3042      H3047   1.084       .  S
C3043      C3044   1.417       .  A
N3045      H3049   1.046   1_455  S
N3045      H3050   1.045   1_455  S
N3048      H3051   1.045       .  S
N3048      H3052   1.046       .  S
C3053      C3054   1.408       .  A
C3053      C3058   1.400       .  A
C3053      H3060   1.084       .  S
C3054      C3055   1.414       .  A
C3055      C3056   1.401       .  A
C3055      N3062   1.432       .  S
C3056      C3057   1.401       .  A
C3056      H3061   1.084       .  S
C3057      C3058   1.406       .  A
C3058      N3059   1.433       .  S
N3059      H3063   1.045       .  S
N3059      H3064   1.046       .  S
N3062      H3065   1.045       .  S
N3062      H3066   1.046       .  S
C3067      C3068   1.407       .  A
C3067      C3072   1.397       .  A
C3067      H3074   1.084       .  S
C3068      C3069   1.415       .  A
C3069      C3070   1.402       .  A
C3069      N3076   1.432       .  S
C3070      C3071   1.400       .  A
C3070      H3075   1.084       .  S
C3071      C3072   1.411       .  A
C3072      N3073   1.433       .  S
N3073      H3077   1.044       .  S
N3073      H3078   1.046       .  S
N3076      H3079   1.046       .  S
N3076      H3080   1.045       .  S
C3081      C3082   1.404       .  A
C3081      C3086   1.403       .  A
C3081      H3088   1.084       .  S
C3082      C3083   1.412       .  A
C3083      C3084   1.407       .  A
C3083      N3090   1.438       .  S
C3084      C3085   1.407       .  A
C3084      H3089   1.083       .  S
C3085      C3086   1.414       .  A
C3086      N3087   1.433       .  S
N3087      H3091   1.046       .  S
N3087      H3092   1.045       .  S
N3090      H3093   1.046       .  S
N3090      H3094   1.045       .  S
C3095      C3096   1.406       .  A
C3095      C3100   1.399       .  A
C3095      H3102   1.084       .  S
C3096      C3097   1.417       .  A
C3097      C3098   1.410       .  A
C3097      N3104   1.437       .  S
C3098      C3099   1.403       .  A
C3098      H3103   1.084       .  S
C3099      C3100   1.408       .  A
C3100      N3101   1.433       .  S
N3101      H3105   1.045       .  S
N3101      H3106   1.046       .  S
N3104      H3107   1.046       .  S
N3104      H3108   1.046       .  S
C3109      C3110   1.406       .  A
C3109      C3114   1.398       .  A
C3109      H3116   1.084       .  S
C3110      C3111   1.415       .  A
C3111      C3112   1.401       .  A
C3111      N3118   1.433       .  S
C3112      C3113   1.401       .  A
C3112      H3117   1.084       .  S
C3113      C3114   1.414       .  A
C3114      N3115   1.433       .  S
N3115      H3119   1.043       .  S
N3115      H3120   1.046       .  S
N3118      H3121   1.046       .  S
N3118      H3122   1.045       .  S
C3123      C3124   1.406       .  A
C3123      C3128   1.406       .  A
C3123      H3130   1.084       .  S
C3124      C3125   1.417       .  A
C3125      C3126   1.398       .  A
C3125      N3132   1.433       .  S
C3126      C3127   1.400       .  A
C3126      H3131   1.084       .  S
C3127      C3128   1.408       .  A
C3128      N3129   1.438       .  S
N3129      H3133   1.046       .  S
N3129      H3134   1.045       .  S
N3132      H3135   1.045       .  S
N3132      H3136   1.045       .  S
C3137      C4230   1.403       .  A
C3137      C3142   1.400       .  A
C3137      H3144   1.084       .  S
C3138      C4229   1.399       .  A
C3138      C3139   1.410       .  A
C3139      C3140   1.406       .  A
C3139      N3146   1.438       .  S
C3140      C3141   1.407       .  A
C3140      H3145   1.083       .  S
C3141      C4234   1.415       .  A
C3142      C4233   1.412       .  A
C3142      N3143   1.433       .  S
N3143      H3147   1.046       .  S
N3143      H3148   1.046       .  S
N3146      H3149   1.045       .  S
N3146      H3150   1.046       .  S
C3151      C3152   1.402       .  A
C3151      C3156   1.405       .  A
C3151      H3158   1.084       .  S
C3152      C3153   1.411       .  A
C3153      C3154   1.400       .  A
C3153      N3160   1.433       .  S
C3154      C3155   1.409       .  A
C3154      H3159   1.084       .  S
C3155      C3156   1.414       .  A
C3156      N3157   1.432       .  S
N3157      H3161   1.046       .  S
N3157      H3162   1.045       .  S
N3160      H3163   1.045       .  S
N3160      H3164   1.045       .  S
C3165      C3166   1.405       .  A
C3165      C3170   1.398       .  A
C3165      H3172   1.084       .  S
C3166      C3167   1.415       .  A
C3167      C3168   1.405       .  A
C3167      N3174   1.438       .  S
C3168      C3169   1.400       .  A
C3168      H3173   1.084       .  S
C3169      C3170   1.410       .  A
C3170      N3171   1.433       .  S
N3171      H3175   1.045       .  S
N3171      H3176   1.046       .  S
N3174      H3177   1.046       .  S
N3174      H3178   1.045       .  S
C3179      C4272   1.402       .  A
C3179      C3184   1.408       .  A
C3179      H3186   1.084       .  S
C3180      C4271   1.401       .  A
C3180      C3181   1.416       .  A
C3181      C3182   1.401       .  A
C3181      N3188   1.440       .  S
C3182      C3183   1.405       .  A
C3182      H3187   1.084       .  S
C3183      C4276   1.413       .  A
C3184      C4275   1.416   1_565  A
C3184      N3185   1.438       .  S
N3185      H3189   1.046       .  S
N3185      H3190   1.046       .  S
N3188      H3191   1.043       .  S
N3188      H3192   1.046       .  S
C3193      C3194   1.401       .  A
C3193      C3198   1.403       .  A
C3193      H3200   1.084       .  S
C3194      C3195   1.410       .  A
C3195      C3196   1.406       .  A
C3195      N3202   1.438       .  S
C3196      C3197   1.408       .  A
C3196      H3201   1.083       .  S
C3197      C3198   1.413       .  A
C3198      N3199   1.432       .  S
N3199      H3203   1.046       .  S
N3199      H3204   1.045       .  S
N3202      H3205   1.045       .  S
N3202      H3206   1.046       .  S
C3207      C3208   1.402       .  A
C3207      C3212   1.405       .  A
C3207      H3214   1.084       .  S
C3208      C3209   1.412       .  A
C3209      C3210   1.398       .  A
C3209      N3216   1.433       .  S
C3210      C3211   1.408       .  A
C3210      H3215   1.084       .  S
C3211      C3212   1.417       .  A
C3212      N3213   1.438       .  S
N3213      H3217   1.046       .  S
N3213      H3218   1.046       .  S
N3216      H3219   1.045       .  S
N3216      H3220   1.044       .  S
C3221      C3222   1.403       .  A
C3221      C3226   1.404       .  A
C3221      H3228   1.084       .  S
C3222      C3223   1.414       .  A
C3223      C3224   1.401       .  A
C3223      N3230   1.433       .  S
C3224      C3225   1.405       .  A
C3224      H3229   1.084       .  S
C3225      C3226   1.410       .  A
C3226      N3227   1.438       .  S
N3227      H3231   1.047       .  S
N3227      H3232   1.045       .  S
N3230      H3233   1.044       .  S
N3230      H3234   1.045       .  S
C3235      C3236   1.400       .  A
C3235      C3240   1.400       .  A
C3235      H3242   1.084       .  S
C3236      C3237   1.406       .  A
C3237      C3238   1.404       .  A
C3237      N3244   1.432       .  S
C3238      C3239   1.409       .  A
C3238      H3243   1.084       .  S
C3239      C3240   1.423       .  A
C3240      N3241   1.431       .  S
N3241      H3245   1.045       .  S
N3241      H3246   1.043       .  S
N3244      H3247   1.045       .  S
N3244      H3248   1.046       .  S
C3249      C3250   1.403       .  A
C3249      C3254   1.400       .  A
C3249      H3256   1.084       .  S
C3250      C3251   1.404       .  A
C3251      C3252   1.401       .  A
C3251      N3258   1.432       .  S
C3252      C3253   1.408       .  A
C3252      H3257   1.084       .  S
C3253      C3254   1.421       .  A
C3254      N3255   1.433       .  S
N3255      H3259   1.046       .  S
N3255      H3260   1.044       .  S
N3258      H3261   1.045       .  S
N3258      H3262   1.046       .  S
C3263      C3264   1.403       .  A
C3263      C3268   1.407       .  A
C3263      H3270   1.084       .  S
C3264      C3265   1.412       .  A
C3265      C3266   1.398       .  A
C3265      N3272   1.433       .  S
C3266      C3267   1.403       .  A
C3266      H3271   1.084       .  S
C3267      C3268   1.410       .  A
C3268      N3269   1.432       .  S
N3272      H3275   1.043       .  S
N3272      H3276   1.047       .  S
C3277      C3278   1.403       .  A
C3277      C3282   1.405       .  A
C3277      C4342   1.480       .  S
C3278      C3279   1.401       .  A
C3278      H3283   1.084       .  S
C3279      C3280   1.402       .  A
C3280      C3281   1.404       .  A
C3281      C3282   1.406       .  A
C3281      C4356   1.481       .  S
C3282      H3285   1.084       .  S
C3286      C3287   1.406       .  A
C3286      C3291   1.401       .  A
C3286      C4314   1.482       .  S
C3287      C3288   1.407       .  A
C3287      H3292   1.083       .  S
C3288      C3289   1.404       .  A
C3288      C4300   1.481       .  S
C3289      C3290   1.402       .  A
C3289      H3293   1.084       .  S
C3290      C3291   1.400       .  A
C3290      C4286   1.478       .  S
C3291      H3294   1.084       .  S
C3295      C3300   1.407   1_545  A
C3295      C4275   1.494       .  S
C3296      C3297   1.400       .  A
C3296      H3301   1.084       .  S
C3297      C3298   1.400       .  A
C3297      C4244   1.472       .  S
C3298      H3302   1.084       .  S
C3299      C3300   1.402       .  A
C3299      C4261   1.474       .  S
C3300      H3303   1.083       .  S
C3304      C4247   1.481       .  S
C3304      N3305   1.357       .  A
C3304      N3309   1.356       .  A
N3305      C3306   1.358       .  A
C3306      C4289   1.485       .  S
C3306      N3307   1.360       .  A
N3307      C3308   1.359       .  A
C3308      C4331   1.491       .  S
C3308      N3309   1.358       .  A
C3310      C3315   1.406       .  A
C3310      C4230   1.484       .  S
C3311      C3312   1.400       .  A
C3311      H3316   1.084       .  S
C3312      C4219   1.475       .  S
C3313      C3314   1.400       .  A
C3313      H3317   1.084       .  S
C3314      C3315   1.402       .  A
C3314      C4205   1.478       .  S
C3315      H3318   1.084       .  S
C3319      C3320   1.407       .  A
C3319      C3324   1.403       .  A
C3319      C4174   1.483       .  S
C3320      C3321   1.407       .  A
C3320      H3325   1.084       .  S
C3321      C3322   1.404       .  A
C3321      C4191   1.486       .  S
C3322      C3323   1.399       .  A
C3322      H3326   1.084       .  S
C3323      C3324   1.400       .  A
C3323      C4163   1.477       .  S
C3324      H3327   1.084       .  S
C3328      C4202   1.488       .  S
C3328      N3329   1.359       .  A
C3328      N3333   1.359       .  A
N3329      C3330   1.359       .  A
C3330      C4160   1.485       .  S
C3330      N3331   1.357       .  A
N3331      C3332   1.357       .  A
C3332      C4146   1.488       .  S
C3332      N3333   1.360       .  A
C3334      C3335   1.407       .  A
C3334      C3339   1.404       .  A
C3335      C3336   1.406       .  A
C3336      C3337   1.401       .  A
C3336      C4132   1.477       .  S
C3337      C3338   1.402       .  A
C3337      H3341   1.084       .  S
C3338      C3339   1.402       .  A
C3338      C4149   1.481       .  S
C3339      H3342   1.084       .  S
Zn3343     O3347   1.965       .  S
Zn3343     O3348   2.027       .  S
Zn3343     O3352   2.030   1_554  S
Zn3344     O3349   2.013   1_554  S
Zn3344     O3351   2.016       .  S
Zn3344     O3355   2.034       .  S
Zn3345     O3347   1.967   1_556  S
Zn3345     O3350   2.022       .  S
Zn3346     O3354   1.997   1_554  S
Zn3346     O3358   2.011   1_545  S
O3348      C3360   1.274       .  A
O3349      C3361   1.273       .  A
O3350      C3362   1.275       .  A
O3352      C3362   1.275       .  A
O3353      C3361   1.273       .  A
O3354      C3363   1.272       .  A
O3355      C3364   1.275       .  A
O3356      C3363   1.275       .  A
O3357      C3364   1.273       .  A
O3358      C3365   1.271       .  A
O3359      C3365   1.274       .  A
C3360      C4272   1.477       .  S
C3361      C4188   1.486       .  S
C3362      C4135   1.489       .  S
C3363      C4233   1.480   1_545  S
C3364      C4359   1.480       .  S
C3365      C4317   1.479       .  S
C3366      C3367   1.404       .  A
C3366      C3371   1.399       .  A
C3366      C4107   1.473       .  S
C3367      C3368   1.406       .  A
C3367      H3372   1.084       .  S
C3368      C3369   1.404       .  A
C3368      C4090   1.483       .  S
C3369      C3370   1.401       .  A
C3369      H3373   1.084       .  S
C3370      C3371   1.398       .  A
C3370      C4076   1.476       .  S
C3371      H3374   1.083       .  S
C3375      C3376   1.405       .  A
C3375      C3380   1.405       .  A
C3375      C4062   1.482       .  S
C3376      H3381   1.083       .  S
C3377      C3378   1.404       .  A
C3377      C4048   1.478       .  S
C3378      H3382   1.084       .  S
C3379      C3380   1.402       .  A
C3379      C4034   1.482       .  S
C3380      H3383   1.084       .  S
C3384      C3385   1.414       .  A
C3384      C3389   1.405       .  A
C3385      C3386   1.411       .  A
C3385      H3390   1.082       .  S
C3386      C3387   1.403       .  A
C3386      C4006   1.491       .  S
C3387      C3388   1.397       .  A
C3387      H3391   1.084       .  S
C3388      C3389   1.398       .  A
C3388      C3992   1.475       .  S
C3393      N3394   1.356       .  A
C3393      N3398   1.357       .  A
C3395      C3995   1.484       .  S
C3395      N3396   1.357       .  A
C3397      C4037   1.488       .  S
C3397      N3398   1.358       .  A
Zn3399     O3403   1.953       .  S
Zn3399     O3404   2.032       .  S
Zn3399     O3408   2.012       .  S
Zn3399     O3415   2.014       .  S
Zn3400     O3403   1.958       .  S
Zn3400     O3405   1.993       .  S
Zn3400     O3407   2.019       .  S
Zn3400     O3411   2.015       .  S
Zn3401     O3403   1.967       .  S
Zn3401     O3406   2.025       .  S
Zn3401     O3409   2.026       .  S
Zn3401     O3412   2.019       .  S
Zn3402     O3403   1.953       .  S
Zn3402     O3410   2.015       .  S
Zn3402     O3413   1.996       .  S
Zn3402     O3414   2.006       .  S
O3404      C3416   1.274       .  A
O3405      C3417   1.271       .  A
O3406      C3418   1.275       .  A
O3407      C3416   1.272       .  A
O3408      C3418   1.276       .  A
O3409      C3417   1.274       .  A
O3410      C3419   1.272       .  A
O3411      C3420   1.273       .  A
O3412      C3419   1.274       .  A
O3413      C3420   1.272       .  A
O3414      C3421   1.272       .  A
O3415      C3421   1.273       .  A
C3416      C4020   1.479       .  S
C3417      C4216   1.475       .  S
C3418      C4121   1.485       .  S
C3419      C4177   1.489       .  S
C3420      C4051   1.477       .  S
C3421      C4093   1.480       .  S
C3422      C3423   1.409       .  A
C3422      C3427   1.409       .  A
C3422      C3964   1.494       .  S
C3423      C3424   1.406       .  A
C3423      H3428   1.083       .  S
C3424      C3425   1.401       .  A
C3424      C3981   1.484       .  S
C3425      C3426   1.398       .  A
C3425      H3429   1.084       .  S
C3426      C3427   1.403       .  A
C3426      C3950   1.483       .  S
C3427      H3430   1.083       .  S
C3431      C3432   1.405       .  A
C3431      C3436   1.406       .  A
C3431      C3939   1.484       .  S
C3433      C3908   1.477   1_455  S
C3434      C3435   1.406       .  A
C3434      H3438   1.084       .  S
C3435      C3436   1.407       .  A
C3435      C3925   1.487       .  S
C3436      H3439   1.084       .  S
C3440      C3445   1.406       .  A
C3440      C3894   1.479       .  S
C3441      C3442   1.398       .  A
C3441      H3446   1.084       .  S
C3442      C3866   1.472       .  S
C3443      C3444   1.406   1_545  A
C3444      C3445   1.410       .  A
C3444      C3883   1.490       .  S
C3445      H3448   1.083       .  S
C3449      C3911   1.486       .  S
C3449      N3450   1.359       .  A
C3449      N3454   1.358       .  A
N3450      C3451   1.359       .  A
C3451      C3953   1.491       .  S
C3451      N3452   1.357       .  A
N3452      C3453   1.357       .  A
C3453      C3869   1.484       .  S
C3453      N3454   1.358       .  A
Zn3455     O3459   1.960       .  S
Zn3455     O3460   2.040       .  S
Zn3455     O3464   2.034       .  S
Zn3455     O3471   2.016       .  S
Zn3456     O3459   1.964       .  S
Zn3456     O3461   2.010       .  S
Zn3456     O3463   2.023       .  S
Zn3456     O3467   2.030       .  S
Zn3457     O3459   1.963       .  S
Zn3457     O3462   2.015       .  S
Zn3457     O3465   2.009       .  S
Zn3457     O3468   2.016       .  S
Zn3458     O3459   1.961       .  S
Zn3458     O3466   2.015       .  S
Zn3458     O3469   2.016       .  S
Zn3458     O3470   2.029       .  S
O3460      C3472   1.277       .  A
O3461      C3473   1.272       .  A
O3462      C3474   1.273       .  A
O3463      C3472   1.275       .  A
O3464      C3474   1.274       .  A
O3465      C3473   1.274       .  A
O3466      C3475   1.273       .  A
O3467      C3476   1.274       .  A
O3468      C3475   1.272       .  A
O3469      C3476   1.274       .  A
O3470      C3477   1.275       .  A
O3471      C3477   1.275       .  A
C3472      C4009   1.493       .  S
C3473      C4104   1.490       .  S
C3474      C3967   1.478       .  S
C3475      C3880   1.475       .  S
C3476      C4065   1.492       .  S
C3477      C3922   1.483       .  S
C3478      C3479   1.406       .  A
C3478      C3483   1.404       .  A
C3478      C3838   1.483       .  S
C3479      C3480   1.404       .  A
C3479      H3484   1.084       .  S
C3480      C3481   1.401       .  A
C3480      C3855   1.477       .  S
C3481      C3482   1.401       .  A
C3481      H3485   1.084       .  S
C3482      C3483   1.401       .  A
C3482      C3824   1.477       .  S
C3483      H3486   1.084       .  S
C3487      C3488   1.403       .  A
C3487      C3492   1.406       .  A
C3487      C3813   1.481       .  S
C3488      C3489   1.401       .  A
C3488      H3493   1.084       .  S
C3489      C3490   1.401       .  A
C3489      C3785   1.480       .  S
C3490      C3491   1.403       .  A
C3490      H3494   1.084       .  S
C3491      C3492   1.405       .  A
C3496      C3497   1.404       .  A
C3496      C3757   1.484       .  S
C3497      C3498   1.404       .  A
C3497      H3502   1.084       .  S
C3499      C3500   1.402       .  A
C3499      H3503   1.084       .  S
C3500      C3501   1.404       .  A
C3500      C3740   1.481       .  S
C3501      H3504   1.084       .  S
C3505      C3782   1.490       .  S
C3505      N3506   1.357       .  A
C3505      N3510   1.363       .  A
N3506      C3507   1.356       .  A
C3507      C3827   1.486       .  S
C3507      N3508   1.357       .  A
N3508      C3509   1.358       .  A
C3509      C3743   1.491       .  S
C3509      N3510   1.362       .  A
Zn3511     O3515   1.966       .  S
Zn3511     O3527   2.029       .  S
Zn3512     O3519   2.016       .  S
Zn3512     O3523   2.011       .  S
Zn3513     O3518   2.016       .  S
Zn3513     O3521   2.010       .  S
Zn3514     O3515   1.962       .  S
Zn3514     O3522   2.028       .  S
Zn3514     O3526   2.017   1_565  S
O3516      C3528   1.273       .  A
O3518      C3530   1.273       .  A
O3519      C3528   1.273       .  A
O3520      C3530   1.276       .  A
O3521      C3529   1.273       .  A
O3522      C3531   1.274       .  A
O3523      C3532   1.272       .  A
O3524      C3531   1.273       .  A
O3525      C3532   1.274       .  A
O3526      C3533   1.274       .  A
O3527      C3533   1.275   1_565  A
C3528      C3810   1.488       .  S
C3529      C3897   1.479       .  S
C3530      C3852   1.495       .  S
C3531      C3936   1.482       .  S
C3532      C3978   1.483       .  S
C3533      C3771   1.491       .  S
C3534      C3535   1.404       .  A
C3534      C3726   1.483       .  S
C3535      H3540   1.084       .  S
C3536      C3537   1.399   1_545  A
C3536      C3698   1.478       .  S
C3537      C3538   1.402       .  A
C3537      H3541   1.084       .  S
C3538      C3539   1.406   1_565  A
C3538      C3715   1.483       .  S
C3539      H3542   1.083   1_545  S
C3543      C3544   1.401       .  A
C3543      C3548   1.400       .  A
C3543      C3670   1.475       .  S
C3544      C3545   1.405       .  A
C3544      H3549   1.084       .  S
C3545      C3546   1.410       .  A
C3545      C3684   1.487       .  S
C3546      C3547   1.406       .  A
C3546      H3550   1.083       .  S
C3547      C3548   1.399       .  A
C3547      C3659   1.482       .  S
C3548      H3551   1.084       .  S
C3552      C3553   1.404       .  A
C3552      C3557   1.407       .  A
C3553      C3554   1.400       .  A
C3554      C3555   1.400       .  A
C3554      C3617   1.480       .  S
C3555      C3556   1.403       .  A
C3555      H3559   1.083       .  S
C3556      C3557   1.404       .  A
C3556      C3645   1.483       .  S
C3557      H3560   1.084       .  S
C3561      C3656   1.490       .  S
C3561      N3562   1.361       .  A
C3563      N3564   1.357       .  A
N3564      C3565   1.357       .  A
C3565      C3614   1.488       .  S
C3565      N3566   1.360       .  A
Zn3567     O3571   1.955       .  S
Zn3567     O3572   2.011       .  S
Zn3567     O3576   2.013       .  S
Zn3567     O3583   2.002       .  S
Zn3568     O3571   1.953       .  S
Zn3568     O3573   2.007       .  S
Zn3568     O3575   2.013       .  S
Zn3568     O3579   2.011       .  S
Zn3569     O3571   1.965       .  S
Zn3569     O3574   2.035       .  S
Zn3569     O3577   2.030       .  S
Zn3569     O3580   2.029       .  S
Zn3570     O3571   1.963       .  S
Zn3570     O3578   2.016       .  S
Zn3570     O3581   2.027       .  S
Zn3570     O3582   2.014       .  S
O3572      C3584   1.273       .  A
O3573      C3585   1.273       .  A
O3574      C3586   1.276       .  A
O3575      C3584   1.272       .  A
O3576      C3586   1.273       .  A
O3577      C3585   1.276       .  A
O3578      C3587   1.273       .  A
O3579      C3588   1.273       .  A
O3580      C3587   1.276       .  A
O3581      C3588   1.274       .  A
O3582      C3589   1.274       .  A
O3583      C3589   1.271       .  A
C3584      C3712   1.482       .  S
C3585      C4258   1.490       .  S
C3586      C4303   1.494       .  S
C3587      C4345   1.485       .  S
C3588      C3642   1.485       .  S
C3589      C3673   1.478       .  S
Zn3590     O3594   1.963       .  S
Zn3590     O3595   2.014       .  S
Zn3590     O3599   2.031       .  S
Zn3590     O3606   2.020       .  S
Zn3591     O3594   1.966       .  S
Zn3591     O3596   2.030       .  S
Zn3591     O3598   2.019       .  S
Zn3591     O3602   2.028       .  S
Zn3592     O3594   1.958       .  S
Zn3592     O3597   2.008       .  S
Zn3592     O3600   2.024       .  S
Zn3592     O3603   2.015       .  S
Zn3593     O3594   1.959       .  S
Zn3593     O3601   2.004       .  S
Zn3593     O3604   2.014       .  S
Zn3593     O3605   2.022       .  S
O3595      C3607   1.275       .  A
O3596      C3608   1.274       .  A
O3597      C3609   1.272       .  A
O3598      C3607   1.274       .  A
O3599      C3609   1.275       .  A
O3600      C3608   1.275       .  A
O3601      C3610   1.272       .  A
O3602      C3611   1.275       .  A
O3603      C3610   1.273       .  A
O3604      C3611   1.273       .  A
O3605      C3612   1.273       .  A
O3606      C3612   1.273       .  A
C3607      C3841   1.487       .  S
C3608      C3754   1.498       .  S
C3609      C3687   1.476       .  S
C3610      C3729   1.469       .  S
C3611      C3799   1.492       .  S
C3612      C3628   1.474       .  S
C3613      C3614   1.406       .  A
C3613      C3618   1.395       .  A
C3613      H3620   1.084       .  S
C3614      C3615   1.419       .  A
C3615      C3616   1.407       .  A
C3616      C3617   1.402       .  A
C3617      C3618   1.413       .  A
C3618      N3619   1.433       .  S
N3619      H3623   1.043       .  S
N3619      H3624   1.045       .  S
N3622      H3625   1.045       .  S
N3622      H3626   1.046       .  S
C3627      C3628   1.400       .  A
C3627      C3632   1.402       .  A
C3627      H3634   1.084       .  S
C3628      C3629   1.411       .  A
C3629      C3630   1.409       .  A
C3629      N3636   1.438       .  S
C3630      C3631   1.406       .  A
C3630      H3635   1.084       .  S
C3631      C3632   1.411       .  A
C3632      N3633   1.433   1_655  S
N3633      H3637   1.045   1_455  S
N3633      H3638   1.046       .  S
N3636      H3639   1.045       .  S
N3636      H3640   1.046       .  S
C3641      C3642   1.407       .  A
C3641      C3646   1.409       .  A
C3641      H3648   1.083       .  S
C3642      C3643   1.414       .  A
C3643      C3644   1.403       .  A
C3643      N3650   1.438       .  S
C3644      C3645   1.402       .  A
C3644      H3649   1.084       .  S
C3645      C3646   1.411       .  A
C3646      N3647   1.438       .  S
N3647      H3651   1.045       .  S
N3647      H3652   1.046       .  S
N3650      H3653   1.046       .  S
N3650      H3654   1.046       .  S
C3655      C3656   1.409       .  A
C3655      C3660   1.402       .  A
C3655      H3662   1.084       .  S
C3656      C3657   1.414       .  A
C3657      C3658   1.402       .  A
C3657      N3664   1.432       .  S
C3658      C3659   1.402       .  A
C3658      H3663   1.084       .  S
C3659      C3660   1.413       .  A
C3660      N3661   1.433       .  S
N3661      H3665   1.043       .  S
N3661      H3666   1.046       .  S
N3664      H3667   1.046       .  S
N3664      H3668   1.045       .  S
C3669      C3670   1.400       .  A
C3669      C3674   1.397       .  A
C3669      H3676   1.084       .  S
C3670      C3671   1.409       .  A
C3671      C3672   1.403       .  A
C3671      N3678   1.438       .  S
C3672      C3673   1.405       .  A
C3672      H3677   1.084       .  S
C3673      C3674   1.418       .  A
C3674      N3675   1.433       .  S
N3675      H3679   1.044       .  S
N3675      H3680   1.046       .  S
N3678      H3681   1.045       .  S
N3678      H3682   1.047       .  S
C3683      C3684   1.406       .  A
C3683      C3688   1.404       .  A
C3683      H3690   1.084       .  S
C3684      C3685   1.409       .  A
C3685      C3686   1.402       .  A
C3685      N3692   1.432       .  S
C3686      C3687   1.403       .  A
C3686      H3691   1.084       .  S
C3687      C3688   1.419       .  A
C3688      N3689   1.440       .  S
N3689      H3693   1.046       .  S
N3689      H3694   1.041       .  S
N3692      H3695   1.045       .  S
N3692      H3696   1.046       .  S
C3697      C3698   1.401   1_565  A
C3697      C3702   1.401       .  A
C3697      H3704   1.084       .  S
C3699      C3700   1.400       .  A
C3699      N3706   1.440       .  S
C3700      H3705   1.084       .  S
C3701      C3702   1.416   1_545  A
C3702      N3703   1.438       .  S
N3703      H3707   1.046       .  S
N3703      H3708   1.046       .  S
N3706      H3709   1.042       .  S
N3706      H3710   1.046       .  S
C3711      C3712   1.406       .  A
C3711      C3716   1.406       .  A
C3711      H3718   1.084       .  S
C3712      C3713   1.413       .  A
C3713      C3714   1.403       .  A
C3713      N3720   1.438       .  S
C3714      C3715   1.404       .  A
C3714      H3719   1.084       .  S
C3715      C3716   1.411       .  A
C3716      N3717   1.438       .  S
N3717      H3721   1.046       .  S
N3720      H3723   1.046       .  S
N3720      H3724   1.045       .  S
C3725      C3726   1.404       .  A
C3725      C3730   1.403       .  A
C3725      H3732   1.084       .  S
C3726      C3727   1.413       .  A
C3727      C3728   1.401       .  A
C3727      N3734   1.438       .  S
C3728      C3729   1.400       .  A
C3728      H3733   1.084       .  S
C3729      C3730   1.417       .  A
C3730      N3731   1.439       .  S
N3731      H3735   1.046       .  S
N3731      H3736   1.042       .  S
N3734      H3737   1.046       .  S
N3734      H3738   1.045       .  S
C3739      C3740   1.403       .  A
C3739      C3744   1.410       .  A
C3739      H3746   1.084       .  S
C3740      C3741   1.410       .  A
C3741      C3742   1.398       .  A
C3741      N3748   1.433       .  S
C3742      C3743   1.408       .  A
C3742      H3747   1.084       .  S
C3743      C3744   1.417       .  A
C3744      N3745   1.437       .  S
N3745      H3749   1.046       .  S
N3745      H3750   1.045       .  S
N3748      H3751   1.046       .  S
N3748      H3752   1.044       .  S
C3753      C3754   1.408       .  A
C3753      C3758   1.402       .  A
C3753      H3760   1.083       .  S
C3754      C3755   1.420       .  A
C3755      C3756   1.410       .  A
C3755      N3762   1.438       .  S
C3756      C3757   1.403       .  A
C3756      H3761   1.084       .  S
C3757      C3758   1.415       .  A
C3758      N3759   1.440       .  S
N3759      H3763   1.045       .  S
N3759      H3764   1.043       .  S
N3762      H3765   1.045       .  S
N3762      H3766   1.046       .  S
C3767      C3768   1.402       .  A
C3767      C3772   1.408       .  A
C3767      H3774   1.084       .  S
C3769      N3776   1.433       .  S
C3770      C3771   1.408   1_565  A
C3771      C3772   1.417       .  A
C3772      N3773   1.438       .  S
N3773      H3778   1.046       .  S
C3781      C3782   1.406       .  A
C3781      C3786   1.406       .  A
C3781      H3788   1.083       .  S
C3782      C3783   1.419       .  A
C3783      C3784   1.405       .  A
C3783      N3790   1.438       .  S
C3784      C3785   1.400       .  A
C3784      H3789   1.084       .  S
C3785      C3786   1.409       .  A
C3786      N3787   1.438       .  S
N3787      H3791   1.045       .  S
N3787      H3792   1.047       .  S
N3790      H3793   1.046       .  S
N3790      H3794   1.045       .  S
C3795      C3796   1.402       .  A
C3795      C3800   1.402       .  A
C3796      C3797   1.413       .  A
C3797      C3798   1.403       .  A
C3797      N3804   1.432       .  S
C3798      C3799   1.409       .  A
C3798      H3803   1.083       .  S
C3799      C3800   1.416       .  A
C3800      N3801   1.433       .  S
N3801      H3805   1.045       .  S
N3801      H3806   1.046       .  S
N3804      H3807   1.045       .  S
N3804      H3808   1.045       .  S
C3809      C3810   1.409       .  A
C3809      C3814   1.407       .  A
C3809      H3816   1.083       .  S
C3810      C3811   1.414       .  A
C3811      C3812   1.401       .  A
C3811      N3818   1.433       .  S
C3812      C3813   1.402       .  A
C3812      H3817   1.084       .  S
C3813      C3814   1.409       .  A
C3814      N3815   1.438       .  S
N3815      H3819   1.046       .  S
N3815      H3820   1.045       .  S
N3818      H3821   1.046       .  S
N3818      H3822   1.046       .  S
C3823      C3824   1.401       .  A
C3823      C3828   1.404       .  A
C3823      H3830   1.084       .  S
C3824      C3825   1.406       .  A
C3825      C3826   1.400       .  A
C3825      N3832   1.432       .  S
C3826      C3827   1.407       .  A
C3826      H3831   1.083       .  S
C3827      C3828   1.415       .  A
C3828      N3829   1.432       .  S
N3829      H3833   1.046       .  S
N3829      H3834   1.045       .  S
N3832      H3835   1.045       .  S
N3832      H3836   1.046       .  S
C3837      C3838   1.403       .  A
C3837      C3842   1.408       .  A
C3837      H3844   1.084       .  S
C3838      C3839   1.408       .  A
C3839      C3840   1.401       .  A
C3839      N3846   1.433       .  S
C3840      C3841   1.406       .  A
C3840      H3845   1.084       .  S
C3841      C3842   1.417       .  A
C3842      N3843   1.438       .  S
N3843      H3847   1.044       .  S
N3843      H3848   1.047       .  S
N3846      H3849   1.045       .  S
N3846      H3850   1.046       .  S
C3851      C3852   1.409       .  A
C3851      C3856   1.399       .  A
C3851      H3858   1.083       .  S
C3852      C3853   1.422       .  A
C3853      C3854   1.407       .  A
C3853      N3860   1.438       .  S
C3854      C3855   1.400       .  A
C3854      H3859   1.084       .  S
C3855      C3856   1.409       .  A
C3856      N3857   1.433       .  S
N3857      H3861   1.046       .  S
N3857      H3862   1.044       .  S
N3860      H3863   1.046       .  S
N3860      H3864   1.046       .  S
C3865      C3866   1.400       .  A
C3865      C3870   1.398       .  A
C3865      H3872   1.084       .  S
C3866      C3867   1.403       .  A
C3867      C3868   1.402       .  A
C3867      N3874   1.432       .  S
C3868      C3869   1.408       .  A
C3868      H3873   1.084       .  S
C3869      C3870   1.419       .  A
C3870      N3871   1.432       .  S
N3871      H3875   1.046       .  S
N3871      H3876   1.041       .  S
N3874      H3877   1.045       .  S
N3874      H3878   1.046       .  S
C3879      C3880   1.400       .  A
C3879      C3884   1.399       .  A
C3879      H3886   1.084       .  S
C3880      C3881   1.412       .  A
C3881      C3882   1.408       .  A
C3881      N3888   1.438       .  S
C3882      C3883   1.407       .  A
C3882      H3887   1.083       .  S
C3883      C3884   1.413       .  A
C3884      N3885   1.433       .  S
N3885      H3889   1.046       .  S
N3885      H3890   1.045       .  S
N3888      H3891   1.046       .  S
N3888      H3892   1.045       .  S
C3893      C3894   1.403   1_545  A
C3893      C3898   1.398       .  A
C3893      H3900   1.084       .  S
C3894      C3895   1.413       .  A
C3895      C3896   1.398       .  A
C3895      N3902   1.433       .  S
C3896      C3897   1.404       .  A
C3896      H3901   1.084       .  S
C3897      C3898   1.417   1_565  A
C3898      N3899   1.433       .  S
N3899      H3903   1.044   1_655  S
N3899      H3904   1.046   1_655  S
N3902      H3905   1.045       .  S
N3902      H3906   1.044       .  S
C3907      C3908   1.400       .  A
C3907      C3912   1.399       .  A
C3907      H3914   1.084       .  S
C3908      C3909   1.408       .  A
C3909      C3910   1.404       .  A
C3909      N3916   1.438       .  S
C3910      C3911   1.407       .  A
C3910      H3915   1.083       .  S
C3911      C3912   1.419       .  A
C3912      N3913   1.432       .  S
N3913      H3917   1.047       .  S
N3913      H3918   1.040       .  S
N3916      H3919   1.048       .  S
N3916      H3920   1.043       .  S
C3921      C3922   1.404       .  A
C3921      C3926   1.402       .  A
C3921      H3928   1.084       .  S
C3922      C3923   1.411       .  A
C3923      C3924   1.407       .  A
C3923      N3930   1.432       .  S
C3924      C3925   1.406       .  A
C3924      H3929   1.084       .  S
C3925      C3926   1.410       .  A
C3926      N3927   1.433       .  S
N3927      H3931   1.045       .  S
N3927      H3932   1.046       .  S
N3930      H3933   1.046       .  S
N3930      H3934   1.045       .  S
C3935      C3936   1.404       .  A
C3935      C3940   1.402       .  A
C3935      H3942   1.084       .  S
C3936      C3937   1.411       .  A
C3937      C3938   1.407       .  A
C3937      N3944   1.432       .  S
C3938      C3939   1.405       .  A
C3938      H3943   1.084       .  S
C3939      C3940   1.409       .  A
C3940      N3941   1.433       .  S
N3941      H3945   1.045       .  S
N3941      H3946   1.046       .  S
N3944      H3947   1.046       .  S
N3944      H3948   1.045       .  S
C3949      C3950   1.403       .  A
C3949      C3954   1.401       .  A
C3949      H3956   1.084       .  S
C3950      C3951   1.416       .  A
C3951      C3952   1.403       .  A
C3951      N3958   1.439       .  S
C3952      C3953   1.408       .  A
C3952      H3957   1.083       .  S
C3953      C3954   1.415       .  A
C3954      N3955   1.433       .  S
N3955      H3959   1.046       .  S
N3955      H3960   1.045       .  S
N3958      H3961   1.043       .  S
N3958      H3962   1.045       .  S
C3963      C3964   1.407       .  A
C3963      C3968   1.405       .  A
C3963      H3970   1.083       .  S
C3964      C3965   1.417       .  A
C3965      C3966   1.409       .  A
C3965      N3972   1.438       .  S
C3966      C3967   1.403       .  A
C3966      H3971   1.084       .  S
C3967      C3968   1.409       .  A
C3968      N3969   1.438       .  S
N3969      H3973   1.046       .  S
N3969      H3974   1.045       .  S
N3972      H3975   1.045       .  S
N3972      H3976   1.046       .  S
C3977      C3978   1.404       .  A
C3977      C3982   1.402       .  A
C3977      H3984   1.084       .  S
C3978      C3979   1.416       .  A
C3979      C3980   1.407       .  A
C3979      N3986   1.438       .  S
C3980      C3981   1.403       .  A
C3980      H3985   1.084       .  S
C3981      C3982   1.412       .  A
C3982      N3983   1.438       .  S
N3983      H3987   1.045       .  S
N3983      H3988   1.046       .  S
N3986      H3989   1.046       .  S
N3986      H3990   1.045       .  S
C3991      C3992   1.400       .  A
C3991      C3996   1.401       .  A
C3991      H3998   1.084       .  S
C3992      C3993   1.412       .  A
C3993      C3994   1.397       .  A
C3994      C3995   1.406       .  A
C3995      C3996   1.414       .  A
C3996      N3997   1.432       .  S
N3997      H4001   1.045       .  S
N3997      H4002   1.046       .  S
N4000      H4003   1.046       .  S
N4000      H4004   1.044       .  S
C4005      C4006   1.406       .  A
C4005      C4010   1.404       .  A
C4005      H4012   1.084       .  S
C4006      C4007   1.409       .  A
C4007      C4008   1.407       .  A
C4007      N4014   1.432       .  S
C4008      C4009   1.410       .  A
C4008      H4013   1.083       .  S
C4009      C4010   1.413       .  A
C4010      N4011   1.432       .  S
N4011      H4015   1.045       .  S
N4011      H4016   1.047       .  S
N4014      H4017   1.045       .  S
N4014      H4018   1.046       .  S
C4019      C4020   1.402       .  A
C4019      C4024   1.408       .  A
C4019      H4026   1.084       .  S
C4020      C4021   1.409       .  A
C4021      C4022   1.408       .  A
C4021      N4028   1.438       .  S
C4022      C4023   1.409       .  A
C4023      C4024   1.416       .  A
C4024      N4025   1.438       .  S
N4025      H4029   1.045       .  S
N4025      H4030   1.046       .  S
N4028      H4031   1.045       .  S
N4028      H4032   1.046       .  S
C4033      C4034   1.401       .  A
C4033      C4038   1.403       .  A
C4033      H4040   1.084       .  S
C4035      C4036   1.398       .  A
C4035      N4042   1.433       .  S
C4036      H4041   1.084       .  S
C4037      C4038   1.415       .  A
C4038      N4039   1.432       .  S
N4039      H4043   1.045       .  S
N4039      H4044   1.046       .  S
N4042      H4045   1.046       .  S
N4042      H4046   1.044       .  S
C4047      C4048   1.401       .  A
C4047      C4052   1.400       .  A
C4047      H4054   1.084       .  S
C4048      C4049   1.411       .  A
C4049      C4050   1.407       .  A
C4049      N4056   1.438       .  S
C4050      C4051   1.405       .  A
C4050      H4055   1.084       .  S
C4051      C4052   1.412       .  A
C4052      N4053   1.438       .  S
N4053      H4057   1.046       .  S
N4053      H4058   1.045       .  S
N4056      H4059   1.047       .  S
N4056      H4060   1.044       .  S
C4061      C4062   1.403       .  A
C4061      C4066   1.407       .  A
C4061      H4068   1.084       .  S
C4062      C4063   1.406       .  A
C4063      C4064   1.402       .  A
C4063      N4070   1.432       .  S
C4064      C4065   1.408       .  A
C4064      H4069   1.083       .  S
C4065      C4066   1.417       .  A
C4066      N4067   1.432       .  S
N4067      H4071   1.045       .  S
N4067      H4072   1.046       .  S
N4070      H4073   1.045       .  S
N4070      H4074   1.046       .  S
C4075      C4076   1.400       .  A
C4075      C4080   1.399       .  A
C4075      H4082   1.084       .  S
C4076      C4077   1.413       .  A
C4077      C4078   1.398       .  A
C4077      N4084   1.433       .  S
C4078      C4079   1.408       .  A
C4078      H4083   1.083       .  S
C4079      C4080   1.415       .  A
N4081      H4085   1.046       .  S
N4081      H4086   1.045       .  S
N4084      H4087   1.045       .  S
N4084      H4088   1.043       .  S
C4089      C4090   1.404       .  A
C4089      C4094   1.403       .  A
C4089      H4096   1.084       .  S
C4090      C4091   1.410       .  A
C4091      C4092   1.406       .  A
C4091      N4098   1.438       .  S
C4092      C4093   1.406       .  A
C4092      H4097   1.084       .  S
C4093      C4094   1.412       .  A
C4094      N4095   1.438       .  S
N4095      H4099   1.046       .  S
N4095      H4100   1.046       .  S
N4098      H4101   1.046       .  S
N4098      H4102   1.045       .  S
C4103      C4104   1.408       .  A
C4103      C4108   1.399       .  A
C4103      H4110   1.084       .  S
C4104      C4105   1.419       .  A
C4105      C4106   1.405       .  A
C4105      N4112   1.438       .  S
C4106      C4107   1.399       .  A
C4106      H4111   1.084       .  S
C4107      C4108   1.414       .  A
C4108      N4109   1.440       .  S
N4109      H4113   1.045       .  S
N4109      H4114   1.043       .  S
N4112      H4115   1.046       .  S
N4112      H4116   1.045       .  S
C4117      C4118   1.405       .  A
C4117      C4122   1.410       .  A
C4117      H4124   1.083       .  S
C4118      C4119   1.413       .  A
C4119      C4120   1.400       .  A
C4120      C4121   1.403       .  A
C4120      H4125   1.084       .  S
C4121      C4122   1.416       .  A
C4122      N4123   1.438       .  S
N4123      H4127   1.046       .  S
N4123      H4128   1.046       .  S
N4126      H4129   1.046       .  S
N4126      H4130   1.045       .  S
C4131      C4132   1.400       .  A
C4131      C4136   1.409       .  A
C4132      C4133   1.410       .  A
C4133      C4134   1.399       .  A
C4133      N4140   1.433       .  S
C4134      C4135   1.407       .  A
C4134      H4139   1.084       .  S
C4135      C4136   1.417       .  A
N4137      H4141   1.046       .  S
N4137      H4142   1.045       .  S
N4140      H4143   1.045       .  S
N4140      H4144   1.045       .  S
C4145      C4146   1.407       .  A
C4145      C4150   1.402       .  A
C4145      H4152   1.083       .  S
C4146      C4147   1.416       .  A
C4147      C4148   1.403       .  A
C4147      N4154   1.432       .  S
C4148      C4149   1.401       .  A
C4148      H4153   1.084       .  S
C4149      C4150   1.408       .  A
C4150      N4151   1.432       .  S
N4151      H4155   1.046       .  S
N4151      H4156   1.045       .  S
N4154      H4157   1.046       .  S
N4154      H4158   1.046       .  S
C4159      C4160   1.406       .  A
C4159      C4164   1.398       .  A
C4159      H4166   1.084       .  S
C4160      C4161   1.415       .  A
C4161      C4162   1.403       .  A
C4161      N4168   1.432       .  S
C4162      C4163   1.401       .  A
C4162      H4167   1.084       .  S
C4163      C4164   1.412       .  A
C4164      N4165   1.433       .  S
N4165      H4169   1.044       .  S
N4165      H4170   1.046       .  S
N4168      H4171   1.046       .  S
N4168      H4172   1.045       .  S
C4173      C4174   1.403       .  A
C4173      C4178   1.403       .  A
C4173      H4180   1.084       .  S
C4174      C4175   1.411       .  A
C4175      C4176   1.406       .  A
C4175      N4182   1.438       .  S
C4176      C4177   1.407       .  A
C4176      H4181   1.083       .  S
C4177      C4178   1.414       .  A
C4178      N4179   1.433       .  S
N4179      H4183   1.046       .  S
N4179      H4184   1.045       .  S
N4182      H4185   1.046       .  S
N4182      H4186   1.045       .  S
C4187      C4188   1.405       .  A
C4187      C4192   1.400       .  A
C4187      H4194   1.084       .  S
C4188      C4189   1.417       .  A
C4189      C4190   1.408       .  A
C4189      N4196   1.438       .  S
C4190      C4191   1.404       .  A
C4190      H4195   1.084       .  S
C4191      C4192   1.409       .  A
C4192      N4193   1.433       .  S
N4193      H4197   1.046       .  S
N4193      H4198   1.046       .  S
N4196      H4199   1.046       .  S
N4196      H4200   1.045       .  S
C4201      C4202   1.407       .  A
C4201      C4206   1.399       .  A
C4201      H4208   1.084       .  S
C4202      C4203   1.415       .  A
C4203      C4204   1.404       .  A
C4203      N4210   1.432       .  S
C4204      C4205   1.401       .  A
C4204      H4209   1.084       .  S
C4205      C4206   1.412       .  A
C4206      N4207   1.433       .  S
N4207      H4211   1.044       .  S
N4207      H4212   1.046       .  S
N4210      H4213   1.046       .  S
N4210      H4214   1.045       .  S
C4215      C4216   1.404       .  A
C4215      C4220   1.406       .  A
C4215      H4222   1.084       .  S
C4216      C4217   1.416       .  A
C4217      C4218   1.395       .  A
C4217      N4224   1.433       .  S
C4218      C4219   1.400       .  A
C4218      H4223   1.084       .  S
C4219      C4220   1.410       .  A
C4220      N4221   1.438       .  S
N4221      H4225   1.047       .  S
N4221      H4226   1.045       .  S
N4224      H4227   1.045       .  S
N4224      H4228   1.044       .  S
C4229      C4234   1.399       .  A
C4229      H4236   1.084       .  S
C4230      C4231   1.414   1_565  A
C4231      C4232   1.405       .  A
C4231      N4238   1.438       .  S
C4232      C4233   1.404   1_545  A
C4232      H4237   1.084       .  S
C4234      N4235   1.433       .  S
N4235      H4239   1.046       .  S
N4235      H4240   1.046       .  S
N4238      H4241   1.042   1_545  S
N4238      H4242   1.049       .  S
C4243      C4244   1.400       .  A
C4243      C4248   1.402       .  A
C4243      H4250   1.084       .  S
C4244      C4245   1.410       .  A
C4245      C4246   1.398       .  A
C4245      N4252   1.433       .  S
C4246      C4247   1.406       .  A
C4246      H4251   1.084       .  S
C4247      C4248   1.413       .  A
C4248      N4249   1.432       .  S
N4249      H4253   1.046       .  S
N4249      H4254   1.045       .  S
N4252      H4255   1.046       .  S
N4252      H4256   1.044       .  S
C4257      C4258   1.408       .  A
C4257      C4262   1.399       .  A
C4257      H4264   1.084       .  S
C4258      C4259   1.420       .  A
C4259      C4260   1.407       .  A
C4259      N4266   1.438       .  S
C4260      C4261   1.399       .  A
C4260      H4265   1.084       .  S
C4261      C4262   1.408       .  A
C4262      N4263   1.432       .  S
N4263      H4267   1.046       .  S
N4263      H4268   1.045       .  S
N4266      H4269   1.046       .  S
N4266      H4270   1.046       .  S
C4271      C4276   1.404       .  A
C4271      H4278   1.084       .  S
C4272      C4273   1.416   1_565  A
C4273      C4274   1.401       .  A
C4273      N4280   1.440       .  S
C4274      C4275   1.406       .  A
C4274      H4279   1.084       .  S
C4276      N4277   1.438       .  S
N4277      H4281   1.045       .  S
N4277      H4282   1.046       .  S
N4280      H4283   1.042       .  S
N4280      H4284   1.046       .  S
C4285      C4286   1.401       .  A
C4285      C4290   1.401       .  A
C4285      H4292   1.084       .  S
C4286      C4287   1.409       .  A
C4287      C4288   1.407       .  A
C4287      N4294   1.438       .  S
C4288      C4289   1.408       .  A
C4288      H4293   1.083       .  S
C4289      C4290   1.412       .  A
C4290      N4291   1.432       .  S
N4291      H4295   1.046       .  S
N4291      H4296   1.045       .  S
N4294      H4297   1.045       .  S
N4294      H4298   1.046       .  S
C4299      C4300   1.400       .  A
C4299      C4304   1.404       .  A
C4299      H4306   1.084       .  S
C4300      C4301   1.411       .  A
C4301      C4302   1.402       .  A
C4301      N4308   1.432       .  S
C4302      C4303   1.409       .  A
C4302      H4307   1.083       .  S
C4303      C4304   1.418       .  A
C4304      N4305   1.433       .  S
N4305      H4309   1.046       .  S
N4305      H4310   1.045       .  S
N4308      H4311   1.046       .  S
N4308      H4312   1.044       .  S
C4313      C4314   1.404       .  A
C4313      C4318   1.406       .  A
C4313      H4320   1.084       .  S
C4314      C4315   1.413       .  A
C4315      C4316   1.401       .  A
C4315      N4322   1.433       .  S
C4316      C4317   1.405       .  A
C4316      H4321   1.084       .  S
C4317      C4318   1.411       .  A
C4318      N4319   1.438       .  S
N4319      H4323   1.047       .  S
N4319      H4324   1.044       .  S
N4322      H4325   1.043       .  S
N4322      H4326   1.046       .  S
C4327      C4328   1.401       .  A
C4327      C4332   1.401       .  A
C4327      H4334   1.084       .  S
C4328      C4329   1.405       .  A
C4329      C4330   1.400       .  A
C4329      N4336   1.433       .  S
C4330      C4331   1.409       .  A
C4330      H4335   1.083       .  S
C4331      C4332   1.422       .  A
C4332      N4333   1.431       .  S
N4333      H4337   1.043       .  S
N4333      H4338   1.045       .  S
N4336      H4339   1.046       .  S
N4336      H4340   1.045       .  S
C4341      C4342   1.401       .  A
C4341      C4346   1.400       .  A
C4341      H4348   1.084       .  S
C4342      C4343   1.409       .  A
C4343      C4344   1.406       .  A
C4343      N4350   1.438       .  S
C4344      C4345   1.406       .  A
C4344      H4349   1.084       .  S
C4345      C4346   1.419       .  A
C4346      N4347   1.433       .  S
N4347      H4351   1.045       .  S
N4347      H4352   1.045       .  S
N4350      H4353   1.046       .  S
N4350      H4354   1.045       .  S
C4355      C4356   1.404       .  A
C4355      C4360   1.406       .  A
C4355      H4362   1.084       .  S
C4356      C4357   1.414       .  A
C4357      C4358   1.400       .  A
C4357      N4364   1.433       .  S
C4358      C4359   1.404       .  A
C4358      H4363   1.084       .  S
C4359      C4360   1.410       .  A
C4360      N4361   1.432       .  S
N4364      H4367   1.044       .  S
N4364      H4368   1.046       .  S
