geometry optimzed in LAMMPS
_audit_creation_date              2020-12-01 
_audit_creation_method            'lammps2cif' 
_symmetry_space_group_name_H-M    'P1' 
_symmetry_Int_Tables_number       1 
_symmetry_cell_setting            triclinic 
loop_ 
_symmetry_equiv_pos_as_xyz 
  x,y,z 
_cell_length_a                    37.62552544 
_cell_length_b                    38.130504649822896 
_cell_length_c                    28.641449251459182 
_cell_angle_alpha                 90.8523945666392 
_cell_angle_beta                  89.12824140757873 
_cell_angle_gamma                 90.49355244883996 
loop_ 
_atom_site_label 
_atom_site_type_symbol 
_atom_site_fract_x 
_atom_site_fract_y 
_atom_site_fract_z 
_atom_site_charge 
N1          N  0.02886544  0.77737050  0.48543762    -0.03500
C2          C  0.02921972  0.74175071  0.48288698    -0.00900
C3          C  0.03922427  0.72682167  0.01794287    -0.23800
C4          C  0.04984002  0.75354909  0.04695806    -0.24000
C5          C  0.04218690  0.78438271  0.02467501    -0.01000
H6          H  0.04095862  0.69902731  0.02462793     0.12800
H7          H  0.06017685  0.75088278  0.08177681     0.12800
N8          N  0.97166731  0.23493257  0.04319961    -0.03500
C9          C  0.97164958  0.27045481  0.04111303    -0.00900
C10         C  0.92946732  0.27695309  0.51624367    -0.23800
C11         C  0.92450400  0.24737308  0.48946312    -0.24000
C12         C  0.94481146  0.22141817  0.50866601    -0.01000
H13         H  0.91867830  0.30263787  0.50987975     0.12800
H14         H  0.90955226  0.24553739  0.45751576     0.12800
N15         N  0.72708712  0.95314406  0.47592243    -0.03500
C16         C  0.76229040  0.94655356  0.46968570    -0.00900
C17         C  0.77495112  0.93389641  0.01739242    -0.23800
C18         C  0.74678674  0.93631133  0.04784840    -0.24000
C19         C  0.71817063  0.94700967  0.02223625    -0.01000
H20         H  0.80221226  0.92894606  0.02669788     0.12800
H21         H  0.74770573  0.93328300  0.08532952     0.12800
N22         N  0.26535167  0.03128611  0.01098581    -0.03500
C23         C  0.22976929  0.03686261  0.01562827    -0.00900
C24         C  0.21104621  0.02942104  0.48248622    -0.23800
C25         C  0.23550013  0.02111426  0.44848487    -0.24000
C26         C  0.26821933  0.02147848  0.46964094    -0.01000
H27         H  0.18253284  0.03057798  0.47832146     0.12800
H28         H  0.23012393  0.01547795  0.41210664     0.12800
N29         N  0.47325689  0.72846257  0.47075612    -0.03500
C30         C  0.46479696  0.76287820  0.46654687    -0.00900
C31         C  0.44868220  0.77963775  0.00565549    -0.23800
C32         C  0.44386702  0.75306788  0.03672833    -0.24000
C33         C  0.45583796  0.72285726  0.01475061    -0.01000
H34         H  0.44233577  0.80699493  0.01157270     0.12800
H35         H  0.43368114  0.75560324  0.07215163     0.12800
N36         N  0.53106388  0.26549154  0.01726614    -0.03500
C37         C  0.54198319  0.23206364  0.02407620    -0.00900
C38         C  0.54207858  0.21607043  0.47136274    -0.23800
C39         C  0.54166406  0.24276781  0.44015936    -0.24000
C40         C  0.53243727  0.27260851  0.46514670    -0.01000
H41         H  0.54795109  0.18885763  0.46347600     0.12800
H42         H  0.54728414  0.24071689  0.40304848     0.12800
N43         N  0.23065938  0.50058187  0.02164032    -0.03500
C44         C  0.26614893  0.49433693  0.02098233    -0.00900
C45         C  0.28145925  0.51458558  0.48702965    -0.23800
C46         C  0.25450247  0.52903062  0.46271444    -0.24000
C47         C  0.22341769  0.52105295  0.48657846    -0.01000
H48         H  0.30946695  0.51587187  0.47793271     0.12800
H49         H  0.25703591  0.54211904  0.42953109     0.12800
N50         N  0.75988685  0.52961230  0.49151509    -0.03500
C51         C  0.72446200  0.53085434  0.48414328    -0.00900
C52         C  0.70958480  0.50807008  0.03360770    -0.23800
C53         C  0.73650561  0.50660037  0.06486912    -0.24000
C54         C  0.76763733  0.51271811  0.04011649    -0.01000
H55         H  0.68162360  0.50355956  0.04094767     0.12800
H56         H  0.73386757  0.50075079  0.10163513     0.12800
O57         O  0.47771997  0.51153385  0.16198418    -0.88300
C58         C  0.45561827  0.55592758  0.28932029     0.87700
Mg59       Mg  0.46934572  0.45672276  0.14611458     1.58100
O60         O  0.54649747  0.54782793  0.26471730    -0.88100
O61         O  0.52065442  0.55132819  0.16159562    -0.75400
C62         C  0.53806694  0.38111891  0.33019442     0.92700
O63         O  0.41876608  0.48979372  0.23781505    -0.75200
O64         O  0.52036851  0.37352283  0.29386155    -0.82700
Mg65       Mg  0.43455755  0.53844560  0.19555434     1.58000
C66         C  0.61450460  0.50702731  0.35646635     0.92700
O67         O  0.44624157  0.58710744  0.15068362    -0.81000
H68         H  0.58828218  0.55681129  0.22242356    -0.06300
C69         C  0.49975935  0.47054905  0.33966515     0.87600
O70         O  0.52914286  0.44737025  0.15685515    -0.75500
O71         O  0.46887360  0.55539026  0.24955082    -0.88300
O72         O  0.59250615  0.53209959  0.35327723    -0.81100
C73         C  0.51995336  0.62254429  0.33838726     0.92800
C74         C  0.46324397  0.61611333  0.15290866     0.92600
Mg75       Mg  0.56864635  0.45814819  0.28766682     1.58000
O76         O  0.55472536  0.41024521  0.33402692    -0.81000
O77         O  0.58523845  0.50683475  0.24568472    -0.75200
O78         O  0.50812653  0.62054923  0.29668247    -0.81100
O79         O  0.39561359  0.52009378  0.14246299    -0.82800
O80         O  0.49550907  0.37654925  0.18619058    -0.81100
C81         C  0.57402430  0.53822740  0.24399864     0.87100
O82         O  0.53477561  0.44162363  0.23251133    -0.88300
O83         O  0.52514494  0.48530938  0.31978603    -0.88400
O84         O  0.48290124  0.44500063  0.32090344    -0.75400
Mg85       Mg  0.51485491  0.58464044  0.22946343     1.58000
O86         O  0.53803127  0.59786383  0.35557353    -0.82800
H87         H  0.51222884  0.51641417  0.10855309    -0.06500
O88         O  0.45730638  0.44894476  0.21808506    -0.88100
H89         H  0.41609792  0.43987637  0.26126559    -0.06300
H90         H  0.57598570  0.43664970  0.18787010    -0.06500
C91         C  0.43003476  0.45845960  0.23934956     0.87000
C92         C  0.50347619  0.52607594  0.14251098     0.87600
C93         C  0.54775900  0.44136443  0.19252696     0.87700
H94         H  0.49114396  0.48016666  0.37373231    -0.06500
O95         O  0.47383741  0.54951844  0.32511760    -0.75500
Mg96       Mg  0.48905989  0.41221910  0.25269003     1.58000
H97         H  0.42744809  0.56107899  0.29362874    -0.06500
C98         C  0.38717419  0.48915177  0.12974847     0.92700
O99         O  0.46460008  0.39801744  0.12746686    -0.82700
C100        C  0.48317009  0.37378405  0.14493626     0.92700
O101        O  0.48428207  0.62330902  0.18621783    -0.82700
Mg102      Mg  0.53323135  0.53967329  0.33638796     1.58200
O103        O  0.40908472  0.46381438  0.13170282    -0.81100
O104        O  0.60731650  0.47628851  0.34151231    -0.82800
O105        O  0.51628753  0.01581539  0.16356850    -0.88300
C106        C  0.56165013  0.03045466  0.29156963     0.87700
Mg107      Mg  0.46502856  0.03521185  0.14541862     1.58100
O108        O  0.53610417  0.94335453  0.26808223    -0.88100
O109        O  0.54742521  0.96707373  0.16562507    -0.75400
C110        C  0.37229246  0.98607588  0.33000712     0.92700
O111        O  0.50664559  0.07964351  0.23568559    -0.75200
O112        O  0.36871798  0.00278708  0.29227634    -0.82700
Mg113      Mg  0.55204793  0.05230528  0.19469851     1.58000
C114        C  0.47878974  0.88551907  0.35762987     0.92700
O115        O  0.59614279  0.02633974  0.14863273    -0.81000
H116        H  0.53772174  0.90117439  0.22573337    -0.06300
C117        C  0.46796285  0.00549130  0.33957387     0.87600
O118        O  0.44198719  0.97976552  0.15720899    -0.75500
O119        O  0.55901168  0.01729703  0.25200642    -0.88300
O120        O  0.50822257  0.90223155  0.35548268    -0.81100
C121        C  0.61336674  0.95373744  0.34282767     0.92800
C122        C  0.62112850  0.00475098  0.15533224     0.92600
Mg123      Mg  0.44233374  0.94048022  0.28893258     1.58000
O124        O  0.39755376  0.96451823  0.33487894    -0.81000
O125        O  0.48790950  0.91423988  0.24750791    -0.75200
O126        O  0.61540987  0.96651396  0.30172371    -0.81100
O127        O  0.54448342  0.09234297  0.13881475    -0.82800
O128        O  0.37857443  0.02667764  0.18409755    -0.81100
C129        C  0.52150089  0.91868725  0.24689683     0.87100
O130        O  0.43500296  0.97631058  0.23303073    -0.88300
O131        O  0.47740914  0.97726736  0.32129478    -0.88400
O132        O  0.44686502  0.02640913  0.31964167    -0.75400
Mg133      Mg  0.57992581  0.96740288  0.23419156     1.58000
O134        O  0.58414671  0.94177604  0.35931845    -0.82800
H135        H  0.51533460  0.97976301  0.11204224    -0.06500
O136        O  0.45809525  0.05031208  0.21675688    -0.88100
H137        H  0.45705196  0.09310896  0.25807236    -0.06300
H138        H  0.42105406  0.93709211  0.18964145    -0.06500
C139        C  0.47301427  0.07521544  0.23712797     0.87000
C140        C  0.52589738  0.98754427  0.14562921     0.87600
C141        C  0.43198184  0.96333106  0.19345853     0.87700
H142        H  0.47852440  0.01294274  0.37321351    -0.06500
O143        O  0.55145302  0.01401221  0.32777145    -0.75500
Mg144      Mg  0.41431691  0.02624017  0.25146182     1.58000
H145        H  0.57237058  0.05668858  0.29540285    -0.06500
C146        C  0.51622229  0.10698918  0.12536988     0.92700
O147        O  0.40882438  0.05172713  0.12571688    -0.82700
C148        C  0.38001123  0.03906873  0.14272586     0.92700
O149        O  0.62572015  0.99130867  0.19503148    -0.82700
Mg150      Mg  0.52861049  0.95837760  0.33933316     1.58200
O151        O  0.48612939  0.09148575  0.12893859    -0.81100
O152        O  0.45027013  0.89908494  0.34316722    -0.82800
O153        O  0.02591264  0.99420730  0.18157752    -0.88300
C154        C  0.04971598  0.94955840  0.30564379     0.87700
Mg155      Mg  0.03237736  0.04925647  0.16849089     1.58100
O156        O  0.95911269  0.95462538  0.28251006    -0.88100
O157        O  0.98544458  0.95214622  0.17930571    -0.75400
C158        C  0.96134728  0.11945757  0.36163184     0.92700
O159        O  0.08567476  0.01716029  0.25450140    -0.75200
O160        O  0.98035284  0.12847141  0.32654648    -0.82700
Mg161      Mg  0.07062015  0.96844342  0.21059477     1.58000
C162        C  0.88623453  0.98982012  0.37384674     0.92700
O163        O  0.05932539  0.92021011  0.16345375    -0.81000
H164        H  0.91882258  0.94529233  0.23913477    -0.06300
C165        C  0.00239245  0.03111103  0.36190045     0.87600
O166        O  0.97270117  0.05750895  0.18273216    -0.75500
O167        O  0.03707430  0.95004635  0.26602220    -0.88300
O168        O  0.91005276  0.96638866  0.36901749    -0.81100
C169        C  0.98638198  0.87972908  0.35174972     0.92800
C170        C  0.04378435  0.89049897  0.16613697     0.92600
Mg171      Mg  0.93312280  0.04280685  0.31272909     1.58000
O172        O  0.94473036  0.09012065  0.36220476    -0.81000
O173        O  0.91935219  0.99466438  0.26665615    -0.75200
O174        O  0.00001192  0.88286870  0.31078602    -0.81100
O175        O  0.10843366  0.98831908  0.15535408    -0.82800
O176        O  0.00609728  0.12951016  0.21530592    -0.81100
C177        C  0.93181019  0.96378634  0.26236825     0.87100
O178        O  0.96727544  0.06205022  0.25885223    -0.88300
O179        O  0.97707915  0.01640957  0.34210859    -0.88400
O180        O  0.01896635  0.05718827  0.34427486    -0.75400
Mg181      Mg  0.99241723  0.91905256  0.24569360     1.58000
O182        O  0.96615260  0.90310810  0.36951305    -0.82800
H183        H  0.99240996  0.98820943  0.12838992    -0.06500
O184        O  0.04521911  0.05671031  0.24016492    -0.88100
H185        H  0.08696880  0.06688661  0.28073875    -0.06300
H186        H  0.92594271  0.06757776  0.21648662    -0.06500
C187        C  0.07326483  0.04801453  0.25879261     0.87000
C188        C  0.00124302  0.97863143  0.16156099     0.87600
C189        C  0.95418754  0.06296918  0.21954435     0.87700
H190        H  0.01127528  0.02091241  0.39470474    -0.06500
O191        O  0.03052638  0.95414784  0.34214453    -0.75500
Mg192      Mg  0.01253185  0.09186659  0.27940955     1.58000
H193        H  0.07809248  0.94573051  0.30931847    -0.06500
C194        C  0.11477259  0.01948426  0.14248916     0.92700
O195        O  0.03603915  0.10783573  0.15364316    -0.82700
C196        C  0.01834142  0.13238241  0.17345718     0.92700
O197        O  0.02503591  0.88189733  0.20150656    -0.82700
Mg198      Mg  0.97021899  0.96160003  0.35441535     1.58200
O199        O  0.09189484  0.04371454  0.14860592    -0.81100
O200        O  0.89307728  0.02171711  0.36495295    -0.82800
O201        O  0.98125775  0.48688437  0.17877705    -0.88300
C202        C  0.93624651  0.46807097  0.30642053     0.87700
Mg203      Mg  0.03449961  0.47249187  0.15983712     1.58100
O204        O  0.95408395  0.55680211  0.28512966    -0.88100
O205        O  0.94530926  0.53219179  0.18184364    -0.75400
C206        C  0.12021903  0.52956396  0.34544849     0.92700
O207        O  0.99579729  0.42425562  0.24858024    -0.75200
O208        O  0.12603748  0.51001736  0.30977013    -0.82700
Mg209      Mg  0.94864411  0.44715247  0.20911970     1.58000
C210        C  0.00523797  0.61910020  0.37624102     0.92700
O211        O  0.90248350  0.46845379  0.16462523    -0.81000
H212        H  0.94935902  0.59811060  0.24351521    -0.06300
C213        C  0.02681453  0.50178946  0.35471092     0.87600
O214        O  0.05263456  0.52940731  0.17278780    -0.75500
O215        O  0.93777181  0.48138185  0.26732317    -0.88300
O216        O  0.97723449  0.60014162  0.37421111    -0.81100
C217        C  0.87748400  0.53966546  0.36080019     0.92800
C218        C  0.87533827  0.48753880  0.17258381     0.92600
Mg219      Mg  0.04726338  0.56830103  0.30433727     1.58000
O220        O  0.09365283  0.54992789  0.34820603    -0.81000
O221        O  0.99986996  0.58960718  0.26419272    -0.75200
O222        O  0.87708571  0.52721484  0.31909420    -0.81100
O223        O  0.96091727  0.40758634  0.15255674    -0.82800
O224        O  0.11977033  0.48647032  0.19900365    -0.81100
C225        C  0.96677705  0.58233716  0.26413408     0.87100
O226        O  0.05935991  0.53298086  0.24849724    -0.88300
O227        O  0.01533094  0.52868599  0.33654631    -0.88400
O228        O  0.04963561  0.48210697  0.33433298    -0.75400
Mg229      Mg  0.91275625  0.52905392  0.25129475     1.58000
O230        O  0.90538644  0.55379203  0.37759221    -0.82800
H231        H  0.97911711  0.52181947  0.12741730    -0.06500
O232        O  0.04162518  0.45804832  0.23056700    -0.88100
H233        H  0.04612035  0.41541040  0.26987155    -0.06300
H234        H  0.07077500  0.57308052  0.20642565    -0.06500
C235        C  0.02884235  0.43178419  0.24989078     0.87000
C236        C  0.96903562  0.51366651  0.16118220     0.87600
C237        C  0.06170131  0.54622406  0.20938913     0.87700
H238        H  0.01636639  0.49425396  0.38852996    -0.06500
O239        O  0.94498987  0.48523534  0.34290808    -0.75500
Mg240      Mg  0.08306052  0.48449626  0.26621369     1.58000
H241        H  0.92792139  0.44094954  0.30953167    -0.06500
C242        C  0.99122408  0.39648717  0.13925606     0.92700
O243        O  0.09187294  0.46049957  0.13941834    -0.82700
C244        C  0.11964455  0.47431883  0.15705210     0.92700
O245        O  0.86947589  0.50080056  0.21278138    -0.82700
Mg246      Mg  0.96236184  0.54262702  0.35590169     1.58200
O247        O  0.01922831  0.41533701  0.14214141    -0.81100
O248        O  0.03479504  0.60863971  0.35946664    -0.82800
C249        C  0.84687959  0.47286000  0.09613094    -0.09200
C250        C  0.85124008  0.49629084  0.13405881     0.07000
C251        C  0.83304992  0.52865140  0.13383238    -0.02900
C252        C  0.80858811  0.53518384  0.09906235    -0.07400
C253        C  0.80222140  0.51069217  0.06325676     0.06200
C254        C  0.82241821  0.47979415  0.06098215    -0.02400
Br255      Br  0.81464951  0.44471150  0.01354194    -0.02100
H256        H  0.86126602  0.44837254  0.09490592     0.10100
H257        H  0.79274998  0.55875905  0.10161508     0.08100
Br258      Br  0.84005305  0.56563227  0.17932643    -0.02500
C259        C  0.79363765  0.50606232  0.42347883    -0.09200
C260        C  0.78800711  0.53278386  0.45688644     0.07000
C261        C  0.81018798  0.56271488  0.45595900    -0.02900
C262        C  0.83853637  0.56470514  0.42383614    -0.07400
C263        C  0.84515334  0.53746025  0.39133637     0.06200
C264        C  0.82207462  0.50792680  0.39120843    -0.02400
Br265      Br  0.82969286  0.46789550  0.35098241    -0.02100
H266        H  0.77654851  0.48309771  0.42355924     0.10100
H267        H  0.85550769  0.58780769  0.42422627     0.08100
Br268      Br  0.80160423  0.60243385  0.49623769    -0.02500
C269        C  0.66406694  0.48436587  0.40261734    -0.09200
C270        C  0.64867960  0.51291792  0.38029744     0.07000
C271        C  0.66525656  0.54627596  0.38395901    -0.02900
C272        C  0.69380145  0.55119278  0.41424259    -0.07400
C273        C  0.70638124  0.52322583  0.44021939     0.06200
C274        C  0.69247047  0.48933586  0.43260834    -0.02400
Br275      Br  0.70786064  0.44982923  0.46758717    -0.02100
H276        H  0.65235425  0.45839143  0.39961595     0.10100
H277        H  0.69050650  0.57021985  0.95819042     0.08100
Br278      Br  0.65008025  0.58610603  0.34945222    -0.02500
C279        C  0.17550652  0.49290060  0.44253622    -0.09200
C280        C  0.18921845  0.52367531  0.46284724     0.07000
C281        C  0.17764542  0.55640258  0.44697783    -0.02900
C282        C  0.15447967  0.55795643  0.40936440    -0.07400
C283        C  0.14348469  0.52719467  0.38616538     0.06200
C284        C  0.15304043  0.49437460  0.40421723    -0.02400
Br285      Br  0.13643490  0.45066350  0.37803166    -0.02100
H286        H  0.18470766  0.46760322  0.45389368     0.10100
H287        H  0.14639378  0.58329927  0.39682733     0.08100
Br288      Br  0.19513297  0.59965292  0.47319980    -0.02500
C289        C  0.19171701  0.45897965  0.06388134    -0.09200
C290        C  0.20525653  0.49311207  0.05853482     0.07000
C291        C  0.19265798  0.51998673  0.08853097    -0.02900
C292        C  0.16635943  0.51278442  0.12232817    -0.07400
C293        C  0.15151514  0.47902836  0.12639165     0.06200
C294        C  0.16482824  0.45184547  0.09716270    -0.02400
Br295      Br  0.14757615  0.40454449  0.10204844    -0.02100
H296        H  0.20149605  0.43807867  0.04126857     0.10100
H297        H  0.15631548  0.53406018  0.14413806     0.08100
Br298      Br  0.21030348  0.56708084  0.08412101    -0.02500
C299        C  0.34581871  0.45755289  0.07630992    -0.09200
C300        C  0.35109813  0.48318360  0.11119153     0.07000
C301        C  0.32219226  0.50478943  0.12490863    -0.02900
C302        C  0.29107766  0.50419609  0.09893289    -0.07400
C303        C  0.28811084  0.48229773  0.05962309     0.06200
C304        C  0.31449641  0.45693996  0.05065217    -0.02400
Br305      Br  0.31031666  0.42345811  0.00032981    -0.02900
H306        H  0.36702115  0.43973578  0.06651344     0.10100
H307        H  0.27023015  0.51472654  0.61672762     0.08100
Br308      Br  0.32371834  0.53686014  0.17730125    -0.02500
C309        C  0.49805393  0.19345744  0.06288682    -0.09200
C310        C  0.53214500  0.20864793  0.06279365     0.07000
C311        C  0.55908480  0.19246295  0.08793704    -0.02900
C312        C  0.55255048  0.16046116  0.10953324    -0.07400
C313        C  0.51941098  0.14317037  0.10609627     0.06200
C314        C  0.49138956  0.16097618  0.08407951    -0.02400
Br315      Br  0.44429377  0.14183045  0.07772227    -0.02100
H316        H  0.47731821  0.20530280  0.04269834     0.10100
H317        H  0.57435383  0.14835950  0.12736158     0.08100
Br318      Br  0.60653892  0.21114616  0.08978120    -0.02500
C319        C  0.55961783  0.32842764  0.43896847    -0.09200
C320        C  0.52947323  0.30657778  0.44182311     0.07000
C321        C  0.50174927  0.31123133  0.41031465    -0.02900
C322        C  0.50523078  0.33583947  0.37496163    -0.07400
C323        C  0.53621251  0.35646443  0.36995308     0.06200
C324        C  0.56312606  0.35348840  0.40363789    -0.02400
Br325      Br  0.60662811  0.38010419  0.40088910    -0.02100
H326        H  0.58161678  0.32423328  0.46216553     0.10100
H327        H  0.48366197  0.33832944  0.35063118     0.08100
Br328      Br  0.45976577  0.28227601  0.41189686    -0.02500
C329        C  0.53009434  0.33557202  0.11077562    -0.09200
C330        C  0.49373819  0.34318026  0.11515789     0.07000
C331        C  0.46938261  0.32331933  0.08831641    -0.02900
C332        C  0.48173766  0.29697646  0.05719567    -0.07400
C333        C  0.51824126  0.29024717  0.05209495     0.06200
C334        C  0.54237889  0.30982636  0.07927166    -0.02400
Br335      Br  0.59265620  0.30389830  0.07214776    -0.02100
H336        H  0.54927273  0.35086431  0.13048121     0.10100
H337        H  0.46296053  0.28209983  0.03637634     0.08100
Br338      Br  0.41915164  0.33051803  0.09416566    -0.02500
C339        C  0.50275553  0.79785469  0.41311486    -0.09200
C340        C  0.46879815  0.78532744  0.42531423     0.07000
C341        C  0.43886367  0.80322828  0.40947927    -0.02900
C342        C  0.44302248  0.83475906  0.38595080    -0.07400
C343        C  0.47687368  0.84957184  0.37767692     0.06200
C344        C  0.50713613  0.82960236  0.38925656    -0.02400
Br345      Br  0.55516203  0.84402055  0.37538220    -0.02100
H346        H  0.52598620  0.78442163  0.42548768     0.10100
H347        H  0.41926418  0.84857777  0.37631562     0.08100
Br348      Br  0.39130544  0.78773251  0.42379762    -0.02500
C349        C  0.42709907  0.67438847  0.05812838    -0.09200
C350        C  0.45855992  0.68976662  0.04056666     0.07000
C351        C  0.49128696  0.67977732  0.05915018    -0.02900
C352        C  0.49207217  0.65570981  0.09553316    -0.07400
C353        C  0.46057862  0.64109480  0.11406974     0.06200
C354        C  0.42786351  0.64998944  0.09423983    -0.02400
Br355      Br  0.38332864  0.63265449  0.11844922    -0.02100
H356        H  0.40163878  0.68297961  0.04555305     0.10100
H357        H  0.51747319  0.64881760  0.11001123     0.08100
Br358      Br  0.53528511  0.70124205  0.03989196    -0.02500
C359        C  0.52174009  0.69569703  0.43140248    -0.09200
C360        C  0.48558605  0.70427708  0.43486347     0.07000
C361        C  0.46145787  0.68684936  0.40533180    -0.02900
C362        C  0.47359304  0.66201264  0.37225769    -0.07400
C363        C  0.50966888  0.65275671  0.36922416     0.06200
C364        C  0.53381261  0.66980562  0.39955445    -0.02400
Br365      Br  0.58345266  0.65880508  0.39891230    -0.02100
H366        H  0.54048265  0.70865962  0.45431913     0.10100
H367        H  0.45439314  0.64841194  0.35057433     0.08100
Br368      Br  0.41135046  0.69390598  0.41208901    -0.02500
C369        C  0.20793929  0.01106940  0.08922829    -0.09200
C370        C  0.20842899  0.03956736  0.05905468     0.07000
C371        C  0.18093186  0.06439871  0.06251161    -0.02900
C372        C  0.15162107  0.05831844  0.09180649    -0.07400
C373        C  0.14903275  0.02766173  0.11830550     0.06200
C374        C  0.17874592  0.00498498  0.11898637    -0.02400
Br375      Br  0.18140960  0.96461729  0.15813677    -0.02100
H376        H  0.22835688  0.98991620  0.59458854     0.10100
H377        H  0.12989641  0.07677908  0.09166986     0.08100
Br378      Br  0.18063656  0.10553555  0.02457465    -0.02500
C379        C  0.33336298  0.02853549  0.37106625    -0.09200
C380        C  0.34829362  0.99486616  0.36996573     0.07000
C381        C  0.34107406  0.97214789  0.40768769    -0.02900
C382        C  0.31739836  0.98267548  0.44351886    -0.07400
C383        C  0.30111673  0.01559604  0.44256631     0.06200
C384        C  0.31001240  0.03887713  0.40662713    -0.02400
Br385      Br  0.29476238  0.08836895  0.89732187    -0.02100
H386        H  0.33936630  0.04697163  0.34357139     0.10100
H387        H  0.30986805  0.96425561  0.47044055     0.08100
Br388      Br  0.35989646  0.92559054  0.41053568    -0.02500
C389        C  0.30381021  0.00339823  0.06861440    -0.09200
C390        C  0.29204817  0.03375544  0.04675538     0.07000
C391        C  0.30807297  0.06613957  0.05852001    -0.02900
C392        C  0.33606670  0.06771285  0.09055930    -0.07400
C393        C  0.34803039  0.03731349  0.11247115     0.06200
C394        C  0.33124515  0.00496180  0.10144370    -0.02400
Br395      Br  0.34677155  0.96165879  0.12720787    -0.02100
H396        H  0.29200265  0.97828892  0.05939856     0.10100
H397        H  0.34870883  0.09274252  0.09813847     0.08100
Br398      Br  0.29510361  0.10683823  0.52765897    -0.02500
C399        C  0.84196462  0.94301008  0.39307949    -0.09200
C400        C  0.84980445  0.97909824  0.38955768     0.07000
C401        C  0.82257199  0.00338287  0.40130685    -0.02900
C402        C  0.79048940  0.99138991  0.42096053    -0.07400
C403        C  0.78467332  0.95567334  0.42911777     0.06200
C404        C  0.80983496  0.93132234  0.41258717    -0.02400
Br405      Br  0.80300735  0.88190809  0.42146538    -0.02100
H406        H  0.86150254  0.92360412  0.38267069     0.10100
H407        H  0.76964987  0.00638606  0.93455112     0.08100
Br408      Br  0.82755739  0.05339910  0.39600492    -0.02500
C409        C  0.67909164  0.99632326  0.04567420    -0.09200
C410        C  0.68566113  0.96008757  0.04553593     0.07000
C411        C  0.66779205  0.93884246  0.07812543    -0.02900
C412        C  0.64648003  0.95419855  0.11279153    -0.07400
C413        C  0.64213870  0.99072385  0.11549794     0.06200
C414        C  0.65720622  0.01176046  0.08023272    -0.02400
Br415      Br  0.65210773  0.06174374  0.08077867    -0.02100
H416        H  0.69334404  0.01304075  0.02141939     0.10100
H417        H  0.63378687  0.93747555  0.13850449     0.08100
Br418      Br  0.67359808  0.88885893  0.07847829    -0.02500
C419        C  0.69405704  0.98289829  0.41387858    -0.09200
C420        C  0.70032125  0.95287695  0.44016950     0.07000
C421        C  0.67927280  0.92270058  0.43204356    -0.02900
C422        C  0.65191099  0.92316446  0.39932957    -0.07400
C423        C  0.64518180  0.95327938  0.37328947     0.06200
C424        C  0.66683955  0.98332084  0.38067214    -0.02400
Br425      Br  0.65828417  0.02664330  0.34974099    -0.02100
H426        H  0.70958211  0.00643304  0.42025778     0.10100
H427        H  0.63559870  0.89988023  0.39443368     0.08100
Br428      Br  0.70090237  0.87629616  0.94374641    -0.02500
C429        C  0.98412888  0.18821429  0.45509393    -0.09200
C430        C  0.95262845  0.18904337  0.48171253     0.07000
C431        C  0.92520137  0.16507198  0.47095498    -0.02900
C432        C  0.92875066  0.14211541  0.43250704    -0.07400
C433        C  0.95924325  0.14304752  0.40348347     0.06200
C434        C  0.98773894  0.16559035  0.41637005    -0.02400
Br435      Br  0.03249113  0.16711280  0.38317448    -0.02100
H436        H  0.00512703  0.20703791  0.46243211     0.10100
H437        H  0.90695032  0.12446104  0.42424971     0.08100
Br438      Br  0.88159979  0.16439401  0.50648428    -0.02500
C439        C  0.97312057  0.17384268  0.14499586    -0.09200
C440        C  0.00881879  0.16337292  0.14513348     0.07000
C441        C  0.03299745  0.17952569  0.11357667    -0.02900
C442        C  0.02093826  0.20446289  0.08172392    -0.07400
C443        C  0.98480442  0.21313054  0.07995938     0.06200
C444        C  0.96104775  0.19801487  0.11252703    -0.02400
Br445      Br  0.91141508  0.20875368  0.11256863    -0.02100
H446        H  0.95402034  0.16163866  0.16847175     0.10100
H447        H  0.03950748  0.21613071  0.05710236     0.08100
Br448      Br  0.08266504  0.16849421  0.11267426    -0.02500
C449        C  0.01291341  0.35478200  0.07837055    -0.09200
C450        C  0.99374567  0.36063757  0.11996875     0.07000
C451        C  0.97547333  0.33236307  0.14111009    -0.02900
C452        C  0.97302785  0.30006770  0.11766563    -0.07400
C453        C  0.98831994  0.29573480  0.07321874     0.06200
C454        C  0.01015007  0.32261049  0.05476916    -0.02400
Br455      Br  0.03320934  0.31794698  0.99472820    -0.02100
H456        H  0.02785421  0.37600561  0.06244037     0.10100
H457        H  0.95622995  0.27960441  0.13212247     0.08100
Br458      Br  0.95223279  0.33672831  0.20101099    -0.02500
C459        C  0.07504012  0.83092605  0.06692699    -0.09200
C460        C  0.04235406  0.81787058  0.05069747     0.07000
C461        C  0.01057371  0.83018993  0.07127524    -0.02900
C462        C  0.01188198  0.85441416  0.10819197    -0.07400
C463        C  0.04451482  0.86650033  0.12551624     0.06200
C464        C  0.07633041  0.85529093  0.10393957    -0.02400
Br465      Br  0.12189617  0.86904073  0.12749175    -0.02100
H466        H  0.09965933  0.82029498  0.05290467     0.10100
H467        H  0.98722832  0.86302094  0.12453897     0.08100
Br468      Br  0.96498100  0.81097492  0.05517658    -0.02500
C469        C  0.98334319  0.80125834  0.43313933    -0.09200
C470        C  0.01835370  0.80149913  0.44967584     0.07000
C471        C  0.04307387  0.82544756  0.43026686    -0.02900
C472        C  0.03241402  0.84925149  0.39649823    -0.07400
C473        C  0.99708701  0.85025561  0.38167336     0.06200
C474        C  0.97249304  0.82573549  0.39996697    -0.02400
Br475      Br  0.92410631  0.82458005  0.38002556    -0.02100
H476        H  0.96423106  0.78258583  0.44699489     0.10100
H477        H  0.05164665  0.86790621  0.38279616     0.08100
Br478      Br  0.09219572  0.82581879  0.44716283    -0.02500
C479        C  0.02819085  0.68011156  0.38088774    -0.09200
C480        C  0.00417505  0.65460498  0.39778562     0.07000
C481        C  0.98232284  0.66302973  0.43673832    -0.02900
C482        C  0.98747253  0.69496967  0.46044924    -0.07400
C483        C  0.01426331  0.71863992  0.44640934     0.06200
C484        C  0.03349025  0.71180183  0.40494564    -0.02400
Br485      Br  0.07078647  0.74224535  0.38330567    -0.02100
H486        H  0.04456458  0.67451718  0.35027177     0.10100
H487        H  0.97292651  0.69979068  0.49283706     0.08100
Br488      Br  0.94881049  0.63047911  0.46353450    -0.02500
N489        N  0.02757297  0.77771736  0.98226211    -0.03500
C490        C  0.02549248  0.74226093  0.97895030    -0.00900
C491        C  0.04452125  0.72796574  0.52204710    -0.23800
C492        C  0.05350554  0.75572995  0.55029241    -0.24000
C493        C  0.04331852  0.78558447  0.52755680    -0.01000
H494        H  0.04778792  0.70048471  0.52976526     0.12800
H495        H  0.06438804  0.75427450  0.58497187     0.12800
N496        N  0.96231979  0.23395836  0.54675839    -0.03500
C497        C  0.95269509  0.26816516  0.55090895    -0.00900
C498        C  0.95129157  0.28153535  0.00452474    -0.23800
C499        C  0.93890784  0.25202097  0.98247795    -0.24000
C500        C  0.95188975  0.22382921  0.00647736    -0.01000
H501        H  0.94659612  0.30832780  0.99444042     0.12800
H502        H  0.92438293  0.25115857  0.95013944     0.12800
N503        N  0.72765871  0.95141909  0.97679230    -0.03500
C504        C  0.76270328  0.94313038  0.97400420    -0.00900
C505        C  0.77813052  0.94032730  0.51190919    -0.23800
C506        C  0.75217132  0.94316508  0.54542145    -0.24000
C507        C  0.72106568  0.95065729  0.52268485    -0.01000
H508        H  0.80623898  0.93715174  0.51801867     0.12800
H509        H  0.75608864  0.94231275  0.58274726     0.12800
N510        N  0.26493871  0.02938529  0.51586284    -0.03500
C511        C  0.22966526  0.03464228  0.52326684    -0.00900
C512        C  0.21343501  0.03411606  0.97279855    -0.23800
C513        C  0.23951137  0.02738276  0.94043697    -0.24000
C514        C  0.27100576  0.02610863  0.96440796    -0.01000
H515        H  0.18527124  0.03576134  0.96605176     0.12800
H516        H  0.23596778  0.02359921  0.90325670     0.12800
N517        N  0.46788951  0.72974969  0.97067919    -0.03500
C518        C  0.46336528  0.76481753  0.96562519    -0.00900
C519        C  0.45251922  0.77654253  0.50869742    -0.23800
C520        C  0.45283931  0.74983139  0.53994517    -0.24000
C521        C  0.46547548  0.72079526  0.51594968    -0.01000
H522        H  0.44433971  0.80325742  0.51587056     0.12800
H523        H  0.44479054  0.75132646  0.57635731     0.12800
N524        N  0.52709053  0.26544137  0.51112797    -0.03500
C525        C  0.53334880  0.23047445  0.51455007    -0.00900
C526        C  0.55906623  0.21901514  0.98453710    -0.23800
C527        C  0.55892648  0.24506593  0.95221313    -0.24000
C528        C  0.54176624  0.27316339  0.97304677    -0.01000
H529        H  0.56918733  0.19274978  0.97919432     0.12800
H530        H  0.56931332  0.24344346  0.91680811     0.12800
N531        N  0.23020120  0.50220172  0.52537188    -0.03500
C532        C  0.26605927  0.49789360  0.52488370    -0.00900
C533        C  0.28162425  0.50651438  0.98018576    -0.23800
C534        C  0.25492239  0.52017458  0.95442101    -0.24000
C535        C  0.22399381  0.51619072  0.98037617    -0.01000
H536        H  0.30953962  0.50592254  0.97051942     0.12800
H537        H  0.25746952  0.53048448  0.91951032     0.12800
N538        N  0.76106715  0.51849763  0.99424305    -0.03500
C539        C  0.72511828  0.51507836  0.99075861    -0.00900
C540        C  0.70574331  0.53276475  0.52593344    -0.23800
C541        C  0.73036311  0.53223895  0.56057425    -0.24000
C542        C  0.76320892  0.52980325  0.53864656    -0.01000
H543        H  0.67714240  0.53235490  0.53062074     0.12800
H544        H  0.72485641  0.53168784  0.59775787     0.12800
O545        O  0.47857116  0.50902542  0.66269619    -0.88300
C546        C  0.45112482  0.55456642  0.78758584     0.87700
Mg547      Mg  0.47085079  0.45449349  0.64637686     1.58100
O548        O  0.54301415  0.54723197  0.77054988    -0.88100
O549        O  0.52146963  0.54884438  0.66540963    -0.75400
C550        C  0.53402040  0.38013633  0.83531169     0.92700
O551        O  0.41694577  0.48744001  0.73460895    -0.75200
O552        O  0.51663064  0.37181003  0.79888632    -0.82700
Mg553      Mg  0.43414321  0.53584840  0.69267616     1.58000
C554        C  0.60664960  0.50680071  0.86901523     0.92700
O555        O  0.44840070  0.58348290  0.64715113    -0.81000
H556        H  0.58654624  0.55661572  0.73164246    -0.06300
C557        C  0.49308788  0.46944086  0.84153825     0.87600
O558        O  0.53023383  0.44543886  0.66088418    -0.75500
O559        O  0.46616230  0.55338851  0.74894213    -0.88300
O560        O  0.58501327  0.53203009  0.86422667    -0.81100
C561        C  0.51322097  0.62231285  0.84017009     0.92800
C562        C  0.46500608  0.61262603  0.65064500     0.92600
Mg563      Mg  0.56417323  0.45790286  0.79466829     1.58000
O564        O  0.54944889  0.40984865  0.83902881    -0.81000
O565        O  0.58247313  0.50649178  0.75405867    -0.75200
O566        O  0.50306001  0.61980876  0.79774437    -0.81100
O567        O  0.39679189  0.51689061  0.63762711    -0.82800
O568        O  0.49553103  0.37353691  0.68725621    -0.81100
C569        C  0.57141022  0.53787144  0.75193200     0.87100
O570        O  0.53290958  0.44035741  0.73695460    -0.88300
O571        O  0.51920622  0.48460095  0.82391084    -0.88400
O572        O  0.47774162  0.44344032  0.82155032    -0.75400
Mg573      Mg  0.51253280  0.58295244  0.73206649     1.58000
O574        O  0.53022097  0.59779905  0.85953621    -0.82800
H575        H  0.51568565  0.51346593  0.61227352    -0.06500
O576        O  0.45608823  0.44647181  0.71734819    -0.88100
H577        H  0.41350812  0.43760987  0.75826767    -0.06300
H578        H  0.57584232  0.43533009  0.69524503    -0.06500
C579        C  0.42815265  0.45610146  0.73699477     0.87000
C580        C  0.50525557  0.52342166  0.64526982     0.87600
C581        C  0.54746423  0.43989138  0.69789798     0.87700
H582        H  0.48255623  0.47899962  0.87471531    -0.06500
O583        O  0.46770438  0.54886727  0.82495839    -0.75500
Mg584      Mg  0.48681491  0.41004140  0.75412454     1.58000
H585        H  0.42283374  0.55971431  0.78951684    -0.06500
C586        C  0.38887483  0.48561089  0.62572586     0.92700
O587        O  0.46671233  0.39654551  0.62771643    -0.82700
C588        C  0.48394007  0.37152199  0.64538114     0.92700
O589        O  0.48320573  0.62051945  0.68647958    -0.82700
Mg590      Mg  0.52646617  0.53927910  0.84121382     1.58200
O591        O  0.41104424  0.46063430  0.62870726    -0.81100
O592        O  0.59999371  0.47650129  0.85202755    -0.82800
O593        O  0.51904758  0.01815418  0.66296848    -0.88300
C594        C  0.56311978  0.03229245  0.79192170     0.87700
Mg595      Mg  0.46776442  0.03697841  0.64445526     1.58100
O596        O  0.53937653  0.94477242  0.76653885    -0.88100
O597        O  0.55115537  0.97003364  0.66470720    -0.75400
C598        C  0.37532750  0.98652091  0.82799017     0.92700
O599        O  0.50822514  0.08166294  0.73592424    -0.75200
O600        O  0.37140308  0.00220783  0.78958149    -0.82700
Mg601      Mg  0.55402513  0.05480227  0.69536627     1.58000
C602        C  0.48208504  0.88607977  0.85571873     0.92700
O603        O  0.59827747  0.02940534  0.64912290    -0.81000
H604        H  0.54139788  0.90315769  0.72320048    -0.06300
C605        C  0.47031328  0.00580498  0.83830032     0.87600
O606        O  0.44519967  0.98123409  0.65540606    -0.75500
O607        O  0.56046736  0.01938091  0.75226077    -0.88300
O608        O  0.51130373  0.90310894  0.85345309    -0.81100
C609        C  0.61599178  0.95563910  0.84215253     0.92800
C610        C  0.62375283  0.00868792  0.65689066     0.92600
Mg611      Mg  0.44539164  0.94099662  0.78686022     1.58000
O612        O  0.40056050  0.96497053  0.83324494    -0.81000
O613        O  0.49142558  0.91546353  0.74523388    -0.75200
O614        O  0.61789386  0.96937772  0.80166368    -0.81100
O615        O  0.54678839  0.09522356  0.64041721    -0.82800
O616        O  0.38177363  0.02764954  0.68315008    -0.81100
C617        C  0.52499570  0.92026487  0.74472124     0.87100
O618        O  0.43809799  0.97714101  0.73114029    -0.88300
O619        O  0.48010044  0.97784411  0.81963380    -0.88400
O620        O  0.44912287  0.02671035  0.81854727    -0.75400
Mg621      Mg  0.58295843  0.97043458  0.73393162     1.58000
O622        O  0.58694253  0.94303562  0.85828039    -0.82800
H623        H  0.51919062  0.98251999  0.61089275    -0.06500
O624        O  0.46042909  0.05161659  0.71600000    -0.88100
H625        H  0.45817373  0.09442720  0.75719546    -0.06300
H626        H  0.42457129  0.93813554  0.68716108    -0.06500
C627        C  0.47466841  0.07677336  0.73662008     0.87000
C628        C  0.52932536  0.99021368  0.64473754     0.87600
C629        C  0.43526709  0.96443358  0.69138245     0.87700
H630        H  0.48064030  0.01303292  0.87215286    -0.06500
O631        O  0.55343454  0.01535715  0.82789793    -0.75500
Mg632      Mg  0.41696423  0.02676761  0.75017948     1.58000
H633        H  0.57347412  0.05864419  0.79604611    -0.06500
C634        C  0.51856727  0.10932663  0.62599412     0.92700
O635        O  0.41143181  0.05298517  0.62452431    -0.82700
C636        C  0.38285836  0.04000470  0.64183003     0.92700
O637        O  0.62847802  0.99694605  0.69747730    -0.82700
Mg638      Mg  0.53128663  0.95933592  0.83802776     1.58200
O639        O  0.48862663  0.09337671  0.62837279    -0.81100
O640        O  0.45345183  0.89922310  0.84090191    -0.82800
O641        O  0.02565461  0.99814846  0.68397482    -0.88300
C642        C  0.04928936  0.95171234  0.80634324     0.87700
Mg643      Mg  0.03334806  0.05300836  0.67181400     1.58100
O644        O  0.95852808  0.95817572  0.78530525    -0.88100
O645        O  0.98372159  0.95746739  0.68174507    -0.75400
C646        C  0.96156139  0.12108160  0.86389740     0.92700
O647        O  0.08524916  0.01910680  0.75766966    -0.75200
O648        O  0.98100415  0.13073771  0.82954760    -0.82700
Mg649      Mg  0.06959368  0.97116552  0.71239885     1.58000
C650        C  0.88709956  0.99237806  0.87855713     0.92700
O651        O  0.05743340  0.92377845  0.66395286    -0.81000
H652        H  0.91750618  0.94802899  0.74346187    -0.06300
C653        C  0.00265733  0.03410405  0.86474733     0.87600
O654        O  0.97353775  0.06172704  0.68531381    -0.75500
O655        O  0.03603664  0.95266206  0.76712991    -0.88300
O656        O  0.91181364  0.96994289  0.87379854    -0.81100
C657        C  0.98572378  0.88263482  0.85217253     0.92800
C658        C  0.04101847  0.89445618  0.66563565     0.92600
Mg659      Mg  0.93288910  0.04546201  0.81525546     1.58000
O660        O  0.94466522  0.09203103  0.86381092    -0.81000
O661        O  0.91838720  0.99774231  0.76965706    -0.75200
O662        O  0.99821995  0.88567715  0.81059060    -0.81100
O663        O  0.10777434  0.99099077  0.65824643    -0.82800
O664        O  0.00629518  0.13234234  0.71805226    -0.81100
C665        C  0.93078416  0.96687429  0.76590309     0.87100
O666        O  0.96757872  0.06474650  0.76149923    -0.88300
O667        O  0.97741952  0.01943092  0.84473259    -0.88400
O668        O  0.01943742  0.06007103  0.84720003    -0.75400
Mg669      Mg  0.99060734  0.92293088  0.74676084     1.58000
O670        O  0.96688851  0.90647992  0.87145725    -0.82800
H671        H  0.99120150  0.99403465  0.63161027    -0.06500
O672        O  0.04566827  0.05958309  0.74350620    -0.88100
H673        H  0.08712028  0.06847429  0.78510773    -0.06300
H674        H  0.92654531  0.07122004  0.71887790    -0.06500
C675        C  0.07332740  0.05013150  0.76248506     0.87000
C676        C  0.00020398  0.98364898  0.66424965     0.87600
C677        C  0.95474194  0.06641131  0.72209859     0.87700
H678        H  0.01135814  0.02389385  0.89763270    -0.06500
O679        O  0.03086655  0.95681082  0.84332978    -0.75500
Mg680      Mg  0.01298565  0.09463214  0.78235343     1.58000
H681        H  0.07763464  0.94727768  0.80918063    -0.06500
C682        C  0.11560086  0.02237977  0.64801307     0.92700
O683        O  0.03773434  0.11142515  0.65748197    -0.82700
C684        C  0.01882401  0.13544888  0.67633481     0.92700
O685        O  0.02156652  0.88597125  0.70040288    -0.82700
Mg686      Mg  0.97101935  0.96480407  0.85694022     1.58200
O687        O  0.09333563  0.04713658  0.65428069    -0.81100
O688        O  0.89238079  0.02429916  0.86801082    -0.82800
O689        O  0.97847018  0.49168854  0.67532004    -0.88300
C690        C  0.93145455  0.47167704  0.80188580     0.87700
Mg691      Mg  0.03124430  0.47312976  0.65681203     1.58100
O692        O  0.95194156  0.56018989  0.78382519    -0.88100
O693        O  0.94397051  0.53814816  0.68022606    -0.75400
C694        C  0.11666630  0.52655122  0.84502855     0.92700
O695        O  0.98842792  0.42631158  0.74144113    -0.75200
O696        O  0.12146240  0.50614310  0.80993023    -0.82700
Mg697      Mg  0.94306157  0.45353144  0.70263546     1.58000
C698        C  0.00368421  0.61999576  0.87331139     0.92700
O699        O  0.89795280  0.47868000  0.65989225    -0.81000
H700        H  0.94914339  0.60171302  0.74224049    -0.06300
C701        C  0.02180346  0.50161195  0.85243780     0.87600
O702        O  0.05273747  0.52898012  0.67075204    -0.75500
O703        O  0.93368985  0.48590420  0.76340254    -0.88300
O704        O  0.97533663  0.60159789  0.87176892    -0.81100
C705        C  0.87429116  0.54300772  0.85943905     0.92800
C706        C  0.87099519  0.49750937  0.66989937     0.92600
Mg707      Mg  0.04531326  0.56764058  0.80298118     1.58000
O708        O  0.09095085  0.54798753  0.84748121    -0.81000
O709        O  0.99922734  0.59069313  0.76236256    -0.75200
O710        O  0.87417508  0.53194186  0.81706528    -0.81100
O711        O  0.95314842  0.41738719  0.64166998    -0.82800
O712        O  0.11608853  0.48361881  0.69846811    -0.81100
C713        C  0.96582232  0.58513171  0.76279065     0.87100
O714        O  0.05701963  0.53208235  0.74691514    -0.88300
O715        O  0.01162417  0.52913521  0.83454942    -0.88400
O716        O  0.04386987  0.48112054  0.83205384    -0.75400
Mg717      Mg  0.91019344  0.53470541  0.74941274     1.58000
O718        O  0.90208535  0.55701805  0.87674051    -0.82800
H719        H  0.97863193  0.52864122  0.62631156    -0.06500
O720        O  0.03631148  0.45826084  0.72748228    -0.88100
H721        H  0.03753872  0.41429293  0.76473108    -0.06300
H722        H  0.07217787  0.57156929  0.70567259    -0.06500
C723        C  0.02170330  0.43218872  0.74499770     0.87000
C724        C  0.96764723  0.51963139  0.65921701     0.87600
C725        C  0.06141004  0.54527381  0.70799450     0.87700
H726        H  0.01072441  0.49419975  0.88596607    -0.06500
O727        O  0.94012237  0.48782421  0.83924371    -0.75500
Mg728      Mg  0.07827798  0.48256225  0.76481259     1.58000
H729        H  0.92242115  0.44469388  0.80372173    -0.06500
C730        C  0.98180609  0.40082388  0.63410392     0.92700
O731        O  0.08896053  0.45814746  0.63786498    -0.82700
C732        C  0.11666337  0.47168884  0.65637136     0.92700
O733        O  0.86584031  0.50930807  0.71088331    -0.82700
Mg734      Mg  0.95905455  0.54462139  0.85405677     1.58200
O735        O  0.01209526  0.41558672  0.63979402    -0.81100
O736        O  0.03317673  0.60820598  0.85792551    -0.82800
C737        C  0.83869082  0.48350368  0.59665639    -0.09200
C738        C  0.84597381  0.50726348  0.63319229     0.07000
C739        C  0.82914121  0.54034154  0.63399027    -0.02900
C740        C  0.80438997  0.54813589  0.60007572    -0.07400
C741        C  0.79578183  0.52373580  0.56502019     0.06200
C742        C  0.81329769  0.49120618  0.56319477    -0.02400
Br743      Br  0.80028037  0.45449528  0.52024808    -0.02100
H744        H  0.85135251  0.45808938  0.59557661     0.10100
H745        H  0.79056526  0.57295084  0.60222278     0.08100
Br746      Br  0.83847928  0.57649282  0.67988424    -0.02500
C747        C  0.79231800  0.50311341  0.92026927    -0.09200
C748        C  0.78684813  0.52663997  0.95773266     0.07000
C749        C  0.80822659  0.55716759  0.95999245    -0.02900
C750        C  0.83568261  0.56257348  0.92697681    -0.07400
C751        C  0.84214460  0.53833337  0.89031724     0.06200
C752        C  0.81949453  0.50854326  0.88686572    -0.02400
Br753      Br  0.82609163  0.47231795  0.84032499    -0.02100
H754        H  0.77639336  0.47951638  0.91804421     0.10100
H755        H  0.85223142  0.58585312  0.93017556     0.08100
Br756      Br  0.79998760  0.59301809  0.00633799    -0.02500
C757        C  0.66220246  0.48218528  0.90074624    -0.09200
C758        C  0.64065724  0.51181178  0.89473827     0.07000
C759        C  0.65211496  0.54427655  0.91445334    -0.02900
C760        C  0.68338124  0.54585266  0.94060050    -0.07400
C761        C  0.70332623  0.51567743  0.94859404     0.06200
C762        C  0.69253078  0.48370730  0.92809915    -0.02400
Br763      Br  0.71484948  0.44012569  0.94245741    -0.02100
H764        H  0.65442534  0.45686824  0.88645251     0.10100
H765        H  0.70447092  0.57735383  0.42005557     0.08100
Br766      Br  0.62564041  0.58700396  0.91092210    -0.02500
C767        C  0.17294798  0.48963835  0.94085092    -0.09200
C768        C  0.18923083  0.52010944  0.95844170     0.07000
C769        C  0.17872939  0.55300305  0.94188440    -0.02900
C770        C  0.15402473  0.55485484  0.90601773    -0.07400
C771        C  0.14046120  0.52414738  0.88520943     0.06200
C772        C  0.14889365  0.49136745  0.90428251    -0.02400
Br773      Br  0.12862953  0.44807187  0.88164694    -0.02100
H774        H  0.18118146  0.46419157  0.95288987     0.10100
H775        H  0.14687728  0.58024248  0.89268020     0.08100
Br776      Br  0.19959904  0.59589458  0.96453576    -0.02500
C777        C  0.19053387  0.45890113  0.56402148    -0.09200
C778        C  0.20476846  0.49300510  0.56167856     0.07000
C779        C  0.19219283  0.51863811  0.59360925    -0.02900
C780        C  0.16504374  0.51047250  0.62588705    -0.07400
C781        C  0.14928597  0.47691745  0.62676474     0.06200
C782        C  0.16293489  0.45075948  0.59605941    -0.02400
Br783      Br  0.14549361  0.40340762  0.59757875    -0.02100
H784        H  0.20031465  0.43884801  0.54007196     0.10100
H785        H  0.15508201  0.53098815  0.64903740     0.08100
Br786      Br  0.21100558  0.56548146  0.59363208    -0.02500
C787        C  0.34780603  0.45767279  0.56843515    -0.09200
C788        C  0.35270303  0.47885738  0.60818829     0.07000
C789        C  0.32306294  0.49640493  0.62816292    -0.02900
C790        C  0.29120254  0.49778992  0.60376974    -0.07400
C791        C  0.28832478  0.48129018  0.56006979     0.06200
C792        C  0.31562380  0.45848137  0.54464289    -0.02400
Br793      Br  0.31155964  0.43154818  0.48777912    -0.02900
H794        H  0.36977367  0.44274786  0.55377449     0.10100
H795        H  0.27083662  0.52342567  0.10675050     0.08100
Br796      Br  0.32510785  0.52006593  0.68773642    -0.02500
C797        C  0.49715053  0.19864991  0.57377698    -0.09200
C798        C  0.53078589  0.20826629  0.55620010     0.07000
C799        C  0.56038103  0.18798283  0.56766947    -0.02900
C800        C  0.55569032  0.15681192  0.59177234    -0.07400
C801        C  0.52165913  0.14492498  0.60538124     0.06200
C802        C  0.49237769  0.16741084  0.59873976    -0.02400
Br803      Br  0.44541050  0.15729658  0.62235879    -0.02100
H804        H  0.47416371  0.21406752  0.56516855     0.10100
H805        H  0.57889592  0.14095414  0.59768173     0.08100
Br806      Br  0.60766294  0.19965953  0.54654426    -0.02500
C807        C  0.55960868  0.33223506  0.94645984    -0.09200
C808        C  0.53428217  0.30515686  0.94694372     0.07000
C809        C  0.50778923  0.30429727  0.91292334    -0.02900
C810        C  0.50818270  0.32900155  0.87737028    -0.07400
C811        C  0.53467634  0.35525521  0.87495802     0.06200
C812        C  0.55987164  0.35746720  0.91132597    -0.02400
Br813      Br  0.59709961  0.39222151  0.91412515    -0.02100
H814        H  0.58059818  0.33255499  0.97192078     0.10100
H815        H  0.48782408  0.32725091  0.85108171     0.08100
Br816      Br  0.47183312  0.26827585  0.91215575    -0.02500
C817        C  0.52778726  0.32767794  0.61471585    -0.09200
C818        C  0.49291283  0.34069674  0.61477334     0.07000
C819        C  0.46900775  0.32698820  0.58129693    -0.02900
C820        C  0.48040528  0.30164862  0.54833935    -0.07400
C821        C  0.51552068  0.28960747  0.54752124     0.06200
C822        C  0.53922017  0.30278187  0.58118965    -0.02400
Br823      Br  0.58825669  0.29000490  0.57984502    -0.02100
H824        H  0.54685378  0.33836224  0.63918896     0.10100
H825        H  0.46192245  0.29157307  0.52272920     0.08100
Br826      Br  0.42031992  0.34144113  0.57928015    -0.02500
C827        C  0.50513343  0.80252257  0.92156854    -0.09200
C828        C  0.47160822  0.78635637  0.92451804     0.07000
C829        C  0.44344906  0.80033845  0.89936774    -0.02900
C830        C  0.44807211  0.83175801  0.87551080    -0.07400
C831        C  0.48068734  0.85020231  0.87615037     0.06200
C832        C  0.51011328  0.83399751  0.89737209    -0.02400
Br833      Br  0.55731689  0.85371901  0.89791351    -0.02100
H834        H  0.52687880  0.79219452  0.94142670     0.10100
H835        H  0.42528633  0.84256728  0.85830659     0.08100
Br836      Br  0.39691768  0.77940903  0.90121831    -0.02500
C837        C  0.43863181  0.66609327  0.54527375    -0.09200
C838        C  0.46917559  0.68696256  0.53912603     0.07000
C839        C  0.49873657  0.68145711  0.56732407    -0.02900
C840        C  0.49682357  0.65671873  0.60270936    -0.07400
C841        C  0.46557119  0.63712294  0.61095562     0.06200
C842        C  0.43661598  0.64111906  0.58067201    -0.02400
Br843      Br  0.39233172  0.61640659  0.58886986    -0.02100
H844        H  0.41530103  0.67108454  0.52475030     0.10100
H845        H  0.51970795  0.65343713  0.62468740     0.08100
Br846      Br  0.54101538  0.70968358  0.56178142    -0.02500
C847        C  0.51475118  0.70339974  0.92004636    -0.09200
C848        C  0.47906620  0.70462105  0.93520207     0.07000
C849        C  0.45461612  0.68058950  0.91566767    -0.02900
C850        C  0.46608758  0.65527846  0.88288554    -0.07400
C851        C  0.50202785  0.65285040  0.86945300     0.06200
C852        C  0.52643677  0.67738816  0.88807061    -0.02400
Br853      Br  0.57578995  0.67623132  0.87068636    -0.02100
H854        H  0.53371123  0.72207017  0.93420381     0.10100
H855        H  0.44700128  0.63655088  0.86903450     0.08100
Br856      Br  0.40518405  0.68148532  0.93261933    -0.02500
C857        C  0.20887704  0.01057794  0.59781611    -0.09200
C858        C  0.21091077  0.03933920  0.56819365     0.07000
C859        C  0.18550223  0.06605978  0.57291729    -0.02900
C860        C  0.15576090  0.06129134  0.60189553    -0.07400
C861        C  0.15092660  0.03000795  0.62658754     0.06200
C862        C  0.17932300  0.00574824  0.62724351    -0.02400
Br863      Br  0.17935127  0.96457846  0.66523568    -0.02100
H864        H  0.22878233  0.99171306  0.08679490     0.10100
H865        H  0.13521445  0.08102207  0.60224807     0.08100
Br866      Br  0.18816682  0.10746818  0.53570335    -0.02500
C867        C  0.33760680  0.03071157  0.86765957    -0.09200
C868        C  0.35200099  0.99682186  0.86805253     0.07000
C869        C  0.34497215  0.97548197  0.90722782    -0.02900
C870        C  0.32119363  0.98710893  0.94237955    -0.07400
C871        C  0.30494185  0.01997358  0.93957771     0.06200
C872        C  0.31458572  0.04236039  0.90288220    -0.02400
Br873      Br  0.28874747  0.08432526  0.40250162    -0.02100
H874        H  0.34381104  0.04832489  0.83927964     0.10100
H875        H  0.31341324  0.96943265  0.97004359     0.08100
Br876      Br  0.36433728  0.92938574  0.91317170    -0.02500
C877        C  0.30407277  0.00333041  0.57379789    -0.09200
C878        C  0.29309349  0.03277483  0.54936830     0.07000
C879        C  0.31046241  0.06511067  0.55737394    -0.02900
C880        C  0.33942007  0.06729000  0.58778708    -0.07400
C881        C  0.35062560  0.03775202  0.61226019     0.06200
C882        C  0.33211249  0.00565998  0.60553072    -0.02400
Br883      Br  0.34537345  0.96352552  0.63637950    -0.02100
H884        H  0.29092369  0.97833968  0.56776001     0.10100
H885        H  0.35307063  0.09218416  0.59259042     0.08100
Br886      Br  0.29285180  0.10860715  0.03047447    -0.02500
C887        C  0.84732483  0.94383844  0.90464070    -0.09200
C888        C  0.85168410  0.97995752  0.89619667     0.07000
C889        C  0.82207851  0.00217775  0.90436435    -0.02900
C890        C  0.79078517  0.98855584  0.92462078    -0.07400
C891        C  0.78808509  0.95312303  0.93668923     0.06200
C892        C  0.81609959  0.93046328  0.92450726    -0.02400
Br893      Br  0.81402338  0.88122120  0.93764414    -0.02100
H894        H  0.86875263  0.92570649  0.89724677     0.10100
H895        H  0.77174228  0.01044583  0.43471090     0.08100
Br896      Br  0.82235309  0.05149634  0.89156580    -0.02500
C897        C  0.67514687  0.99534554  0.54192802    -0.09200
C898        C  0.68892893  0.96172461  0.54888759     0.07000
C899        C  0.67799441  0.94292573  0.58855765    -0.02900
C900        C  0.65689407  0.95905616  0.62267426    -0.07400
C901        C  0.64533440  0.99374016  0.61794263     0.06200
C902        C  0.65303469  0.01132727  0.57584995    -0.02400
Br903      Br  0.63668939  0.05786254  0.56414603    -0.02100
H904        H  0.68356684  0.01020591  0.51173320     0.10100
H905        H  0.64963049  0.94421989  0.65341016     0.08100
Br906      Br  0.69221366  0.89540097  0.59895788    -0.02500
C907        C  0.69206058  0.98460627  0.92085929    -0.09200
C908        C  0.70304030  0.95244752  0.93860316     0.07000
C909        C  0.68690490  0.92129582  0.92182872    -0.02900
C910        C  0.65938789  0.92268171  0.88939376    -0.07400
C911        C  0.64789320  0.95486154  0.87214781     0.06200
C912        C  0.66490994  0.98599611  0.88769339    -0.02400
Br913      Br  0.64975826  0.03123589  0.86798406    -0.02100
H914        H  0.70381871  0.00873783  0.93395016     0.10100
H915        H  0.64652973  0.89853780  0.87811102     0.08100
Br916      Br  0.68718140  0.88008629  0.46482307    -0.02500
C917        C  0.98781512  0.17989570  0.96518861    -0.09200
C918        C  0.95440276  0.18945242  0.98311975     0.07000
C919        C  0.92367192  0.17306575  0.96532643    -0.02900
C920        C  0.92649656  0.14980127  0.92736687    -0.07400
C921        C  0.95962208  0.14335341  0.90609252     0.06200
C922        C  0.99066253  0.15724845  0.92664305    -0.02400
Br923      Br  0.03757759  0.14681595  0.90328136    -0.02100
H924        H  0.01160078  0.19265304  0.97822051     0.10100
H925        H  0.90259936  0.13825384  0.91286266     0.08100
Br926      Br  0.87713023  0.18418800  0.98908319    -0.02500
C927        C  0.97394620  0.17986451  0.65428867    -0.09200
C928        C  0.00801063  0.16570253  0.64701202     0.07000
C929        C  0.02814972  0.17717829  0.60768191    -0.02900
C930        C  0.01335409  0.20054637  0.57580057    -0.07400
C931        C  0.97864958  0.21301182  0.58212471     0.06200
C932        C  0.95918649  0.20283734  0.62219951    -0.02400
Br933      Br  0.91089826  0.21694275  0.63230698    -0.02100
H934        H  0.95765920  0.17129259  0.68354284     0.10100
H935        H  0.02872696  0.20851083  0.54545656     0.08100
Br936      Br  0.07607501  0.16228726  0.59558605    -0.02500
C937        C  0.00332496  0.34871529  0.58745551    -0.09200
C938        C  0.97898635  0.36335954  0.61974730     0.07000
C939        C  0.95071405  0.34207759  0.63672543    -0.02900
C940        C  0.94505912  0.30863477  0.61767274    -0.07400
C941        C  0.96747855  0.29521022  0.58253891     0.06200
C942        C  0.99758646  0.31493214  0.56864385    -0.02400
Br943      Br  0.02891792  0.29832917  0.51987821    -0.02100
H944        H  0.02550106  0.36430463  0.57462022     0.10100
H945        H  0.92146700  0.29410280  0.62803434     0.08100
Br946      Br  0.91816577  0.35703666  0.68536836    -0.02500
C947        C  0.07433355  0.83398227  0.56867626    -0.09200
C948        C  0.04218494  0.81965300  0.55244851     0.07000
C949        C  0.00987526  0.83200571  0.57153676    -0.02900
C950        C  0.01023437  0.85714908  0.60751323    -0.07400
C951        C  0.04241746  0.87034518  0.62504627     0.06200
C952        C  0.07466642  0.85948228  0.60431732    -0.02400
Br953      Br  0.11974881  0.87543913  0.62713843    -0.02100
H954        H  0.09936665  0.82362077  0.55565934     0.10100
H955        H  0.98521821  0.86558377  0.62302674     0.08100
Br956      Br  0.96483040  0.81197007  0.55457366    -0.02500
C957        C  0.98169521  0.80442435  0.93346606    -0.09200
C958        C  0.01727102  0.80270525  0.94752249     0.07000
C959        C  0.04249729  0.82535824  0.92661683    -0.02900
C960        C  0.03188988  0.84956670  0.89329237    -0.07400
C961        C  0.99609427  0.85249078  0.88095720     0.06200
C962        C  0.97087455  0.82957366  0.90129696    -0.02400
Br963      Br  0.92151039  0.83179788  0.88607021    -0.02100
H964        H  0.96213729  0.78682178  0.94867530     0.10100
H965        H  0.05153257  0.86725343  0.87834983     0.08100
Br966      Br  0.09187800  0.82406743  0.94187081    -0.02500
C967        C  0.03247079  0.67828373  0.88180902    -0.09200
C968        C  0.00324867  0.65635348  0.89250693     0.07000
C969        C  0.97611406  0.66952121  0.92255372    -0.02900
C970        C  0.98139007  0.70159691  0.94599223    -0.07400
C971        C  0.01288307  0.72097246  0.93947986     0.06200
C972        C  0.03745578  0.71019833  0.90507786    -0.02400
Br973      Br  0.08110682  0.73518987  0.89407081    -0.02100
H974        H  0.05289833  0.66968796  0.85726337     0.10100
H975        H  0.96241262  0.70978008  0.97275557     0.08100
Br976      Br  0.93306071  0.64422216  0.93714341    -0.02500
loop_ 
_geom_bond_atom_site_label_1 
_geom_bond_atom_site_label_2 
_geom_bond_distance 
_geom_bond_site_symmetry_2 
_ccdc_geom_bond_type 
N1            C2   1.359       .  A
N1          C493   1.362       .  A
N1          C470   1.449       .  S
C2          C483   1.472       .  S
C2          C491   1.381       .  A
C3            C4   1.366       .  A
C3          C490   1.380   1_554  A
C3            H6   1.082       .  S
C4            C5   1.381       .  A
C4            H7   1.082       .  S
C5          N489   1.361   1_554  A
C5          C460   1.469       .  S
N8            C9   1.357       .  A
N8          C500   1.358       .  A
N8          C443   1.447       .  S
C9          C453   1.466       .  S
C9          C498   1.381       .  A
C10          C11   1.368       .  A
C10         C497   1.380       .  A
C10          H13   1.082       .  S
C11          C12   1.381       .  A
C11          H14   1.082       .  S
C12         N496   1.362       .  A
C12         C430   1.476       .  S
N15          C16   1.359       .  A
N15         C507   1.360       .  A
N15         C420   1.447       .  S
C16         C403   1.469       .  S
C16         C505   1.381       .  A
C17          C18   1.365       .  A
C17         C504   1.383   1_554  A
C17          H20   1.083       .  S
C18          C19   1.380       .  A
C18          H21   1.083       .  S
C19         N503   1.357   1_554  A
C19         C410   1.472       .  S
N22          C23   1.362       .  A
N22         C514   1.359   1_554  A
N22         C390   1.447       .  S
C23         C370   1.473       .  S
C23         C512   1.383   1_554  A
C24          C25   1.365       .  A
C24         C511   1.382       .  A
C24          H27   1.083       .  S
C25          C26   1.380       .  A
C25          H28   1.082       .  S
C26         N510   1.357       .  A
C26         C383   1.468       .  S
N29          C30   1.361       .  A
N29         C521   1.358       .  A
N29         C360   1.445       .  S
C30         C340   1.474       .  S
C30         C519   1.382       .  A
C31          C32   1.367       .  A
C31         C518   1.381   1_554  A
C31          H34   1.082       .  S
C32          C33   1.380       .  A
C32          H35   1.082       .  S
C33         N517   1.363   1_554  A
C33         C350   1.477       .  S
N36          C37   1.360       .  A
N36         C528   1.358   1_554  A
N36         C333   1.444       .  S
C37         C310   1.475       .  S
C37         C526   1.382   1_554  A
C38          C39   1.365       .  A
C38         C525   1.382       .  A
C38          H41   1.083       .  S
C39          C40   1.379       .  A
C39          H42   1.082       .  S
C40         N524   1.361       .  A
C40         C320   1.472       .  S
N43          C44   1.358       .  A
N43         C535   1.359   1_554  A
N43         C290   1.444       .  S
C44         C303   1.472       .  S
C44         C533   1.382   1_554  A
C45          C46   1.364       .  A
C45         C532   1.383       .  A
C45          H48   1.083       .  S
C46          C47   1.380       .  A
C46          H49   1.083       .  S
C47         N531   1.361       .  A
C47         C280   1.469       .  S
N50          C51   1.354       .  A
N50         C542   1.357       .  A
N50         C260   1.445       .  S
C51         C273   1.464       .  S
C51         C540   1.381       .  A
C52          C53   1.364       .  A
C52         C539   1.380   1_554  A
C52          H55   1.083       .  S
C53          C54   1.380       .  A
C53          H56   1.083       .  S
C54         N538   1.362   1_554  A
C54         C253   1.472       .  S
O57         Mg59   2.154       .  S
O57         Mg65   2.137       .  S
O57          C92   1.241       .  S
C58          H97   1.084       .  S
C58          O71   1.236       .  S
C58          O95   1.270       .  A
Mg59         O88   2.128       .  S
Mg59        O103   2.330       .  S
Mg59         O99   2.300       .  S
Mg59         O70   2.307       .  S
O60        Mg102   2.132       .  S
O60         Mg85   2.125       .  S
O60          C81   1.241       .  S
O61          C92   1.276       .  A
O61         Mg85   2.315       .  S
C62         C323   1.488       .  S
C62          O64   1.272       .  A
C62          O76   1.275       .  A
O63          C91   1.273       .  A
O63         Mg65   2.299       .  S
O64         Mg96   2.254       .  S
Mg65         O71   2.120       .  S
Mg65         O79   2.229       .  S
Mg65         O67   2.308       .  S
C66         C270   1.479       .  S
C66         O104   1.270       .  A
C66          O72   1.275       .  A
O67          C74   1.274       .  A
H68          C81   1.081       .  S
C69          H94   1.083       .  S
C69          O83   1.240       .  S
C69          O84   1.274       .  A
O70          C93   1.272       .  A
O71         Mg85   2.127       .  S
O72        Mg102   2.311       .  S
C73         C363   1.491       .  S
C73          O86   1.275       .  A
C73          O78   1.282       .  A
C74         C353   1.480       .  S
C74         O101   1.274       .  A
Mg75         O82   2.129       .  S
Mg75         O83   2.134       .  S
Mg75         O76   2.326       .  S
Mg75         O77   2.303       .  S
Mg75        O104   2.235       .  S
O77          C81   1.274       .  A
O78         Mg85   2.358       .  S
O79          C98   1.269       .  A
O80         C100   1.279       .  A
O80         Mg96   2.335       .  S
O82         Mg96   2.123       .  S
O82          C93   1.238       .  S
O83        Mg102   2.140       .  S
O84         Mg96   2.313       .  S
Mg85        O101   2.271       .  S
O86        Mg102   2.284       .  S
H87          C92   1.083       .  S
O88         Mg96   2.116       .  S
O88          C91   1.239       .  S
H89          C91   1.081       .  S
H90          C93   1.085       .  S
O95        Mg102   2.298       .  S
C98         C300   1.480       .  S
C98         O103   1.278       .  A
O99         C100   1.276       .  A
C100        C330   1.488       .  S
O105       Mg107   2.146       .  S
O105       Mg113   2.123       .  S
O105        C140   1.242   1_545  S
C106        H145   1.080       .  S
C106        O119   1.237       .  S
C106        O143   1.272       .  A
Mg107       O136   2.127       .  S
Mg107       O151   2.334       .  S
Mg107       O147   2.293       .  S
Mg107       O118   2.306   1_545  S
O108       Mg150   2.127       .  S
O108       Mg133   2.110       .  S
O108        C129   1.241       .  S
O109        C140   1.277       .  A
O109       Mg133   2.329       .  S
C110        C380   1.483       .  S
C110        O112   1.272   1_565  A
C110        O124   1.273       .  A
O111        C139   1.275       .  A
O111       Mg113   2.306       .  S
O112       Mg144   2.248       .  S
Mg113       O119   2.152       .  S
Mg113       O127   2.251       .  S
Mg113       O115   2.323       .  S
C114        C343   1.495       .  S
C114        O152   1.273       .  A
C114        O120   1.274       .  A
O115        C122   1.273       .  A
H116        C129   1.081       .  S
C117        H142   1.081       .  S
C117        O131   1.242   1_545  S
C117        O132   1.277       .  A
O118        C141   1.271       .  A
O119       Mg133   2.117   1_545  S
O120       Mg150   2.319       .  S
C121        C423   1.492       .  S
C121        O134   1.273       .  A
C121        O126   1.282       .  A
C122        C413   1.475   1_545  S
C122        O149   1.269   1_545  A
Mg123       O130   2.143       .  S
Mg123       O131   2.130       .  S
Mg123       O124   2.310       .  S
Mg123       O125   2.298       .  S
Mg123       O152   2.256       .  S
O125        C129   1.274       .  A
O126       Mg133   2.368       .  S
O127        C146   1.273       .  A
O128        C148   1.282       .  A
O128       Mg144   2.369       .  S
O130       Mg144   2.119   1_565  S
O130        C141   1.236       .  S
O131       Mg150   2.136       .  S
O132       Mg144   2.321       .  S
Mg133       O149   2.237       .  S
O134       Mg150   2.273       .  S
H135        C140   1.083       .  S
O136       Mg144   2.120       .  S
O136        C139   1.242       .  S
H137        C139   1.082       .  S
H138        C141   1.083       .  S
O143       Mg150   2.309   1_545  S
C146        C313   1.497       .  S
C146        O151   1.276       .  A
O147        C148   1.276       .  A
C148        C393   1.494       .  S
O153       Mg155   2.149   1_565  S
O153       Mg161   2.140       .  S
O153        C188   1.241       .  S
C154        H193   1.086       .  S
C154        O167   1.238       .  S
C154        O191   1.272       .  A
Mg155       O184   2.130       .  S
Mg155       O199   2.313       .  S
Mg155       O195   2.283       .  S
Mg155       O166   2.299   1_455  S
O156       Mg198   2.120       .  S
O156       Mg181   2.114       .  S
O156        C177   1.241       .  S
O157        C188   1.276   1_655  A
O157       Mg181   2.317       .  S
C158        C433   1.489       .  S
C158        O160   1.274       .  A
C158        O172   1.277       .  A
O159        C187   1.273       .  A
O159       Mg161   2.299   1_545  S
O160       Mg192   2.272   1_655  S
Mg161       O167   2.136       .  S
Mg161       O175   2.247       .  S
Mg161       O163   2.306       .  S
C162        C400   1.492       .  S
C162        O200   1.270   1_565  A
C162        O168   1.275       .  A
O163        C170   1.273       .  A
H164        C177   1.081       .  S
C165        H190   1.081       .  S
C165        O179   1.241   1_455  S
C165        O180   1.276       .  A
O166        C189   1.270       .  A
O167       Mg181   2.129   1_455  S
O168       Mg198   2.304       .  S
C169        C473   1.486       .  S
C169        O182   1.273       .  A
C169        O174   1.280   1_655  A
C170        C463   1.470       .  S
C170        O197   1.271       .  A
Mg171       O178   2.128       .  S
Mg171       O179   2.134       .  S
Mg171       O172   2.320       .  S
Mg171       O173   2.305   1_545  S
Mg171       O200   2.258       .  S
O173        C177   1.275       .  A
O174       Mg181   2.358   1_455  S
O175        C194   1.269   1_565  A
O176        C196   1.283       .  A
O176       Mg192   2.364       .  S
O178       Mg192   2.125   1_655  S
O178        C189   1.237       .  S
O179       Mg198   2.137   1_545  S
O180       Mg192   2.313       .  S
Mg181       O197   2.246   1_655  S
O182       Mg198   2.282       .  S
H183        C188   1.081   1_655  S
O184       Mg192   2.125       .  S
O184        C187   1.240       .  S
H185        C187   1.081       .  S
H186        C189   1.084       .  S
O191       Mg198   2.310   1_455  S
C194        C373   1.487       .  S
C194        O199   1.277       .  A
O195        C196   1.275       .  A
C196        C440   1.492       .  S
O201       Mg203   2.141   1_655  S
O201       Mg209   2.129       .  S
O201        C236   1.240       .  S
C202        H241   1.083       .  S
C202        O215   1.237       .  S
C202        O239   1.271       .  A
Mg203       O232   2.129       .  S
Mg203       O247   2.300       .  S
Mg203       O243   2.276       .  S
Mg203       O214   2.296       .  S
O204       Mg246   2.134       .  S
O204       Mg229   2.113       .  S
O204        C225   1.240       .  S
O205        C236   1.276       .  A
O205       Mg229   2.324       .  S
C206        C283   1.473       .  S
C206        O208   1.273       .  A
C206        O220   1.272       .  A
O207        C235   1.275   1_655  A
O207       Mg209   2.303       .  S
O208       Mg240   2.262       .  S
Mg209       O215   2.139       .  S
Mg209       O223   2.243       .  S
Mg209       O211   2.329       .  S
C210        C480   1.480       .  S
C210        O248   1.270       .  A
C210        O216   1.274   1_455  A
O211        C218   1.275       .  A
H212        C225   1.081       .  S
C213        H238   1.082       .  S
C213        O227   1.241       .  S
C213        O228   1.274       .  A
O214        C237   1.270       .  A
O215       Mg229   2.114       .  S
O216       Mg246   2.313       .  S
C217        C263   1.490       .  S
C217        O230   1.273       .  A
C217        O222   1.279       .  A
C218        C250   1.482       .  S
C218        O245   1.268       .  A
Mg219       O226   2.122       .  S
Mg219       O227   2.134       .  S
Mg219       O220   2.287       .  S
Mg219       O221   2.297   1_455  S
Mg219       O248   2.235       .  S
O221        C225   1.273       .  A
O222       Mg229   2.345       .  S
O223        C242   1.271       .  A
O224        C244   1.281       .  A
O224       Mg240   2.354       .  S
O226       Mg240   2.131       .  S
O226        C237   1.237       .  S
O227       Mg246   2.130   1_455  S
O228       Mg240   2.308       .  S
Mg229       O245   2.240       .  S
O230       Mg246   2.265       .  S
H231        C236   1.082       .  S
O232       Mg240   2.117       .  S
O232        C235   1.241       .  S
H233        C235   1.081       .  S
H234        C237   1.081       .  S
O239       Mg246   2.305       .  S
C242        C450   1.470       .  S
C242        O247   1.273   1_655  A
O243        C244   1.274       .  A
C244        C293   1.487       .  S
C249        C250   1.407       .  A
C249        C254   1.404       .  A
C249        H256   1.083       .  S
C250        C251   1.416       .  A
C251        C252   1.393       .  A
C251       Br258   1.925       .  S
C252        C253   1.399       .  A
C252        H257   1.084       .  S
C253        C254   1.408       .  A
C254       Br255   1.916       .  S
C259        C260   1.403       .  A
C259        C264   1.405       .  A
C259        H266   1.082       .  S
C260        C261   1.408       .  A
C261        C262   1.400       .  A
C261       Br268   1.917       .  S
C262        C263   1.406       .  A
C262        H267   1.084       .  S
C263        C264   1.416       .  A
C264       Br265   1.920       .  S
C269        C270   1.404       .  A
C269        C274   1.391       .  A
C269        H276   1.083       .  S
C270        C271   1.415       .  A
C271        C272   1.400       .  A
C271       Br278   1.920       .  S
C272        C273   1.399       .  A
C272        H765   1.084       .  S
C273        C274   1.405       .  A
C274       Br275   1.920       .  S
H277        C760   1.084       .  S
C279        C280   1.400       .  A
C279        C284   1.398       .  A
C279        H286   1.084       .  S
C280        C281   1.409       .  A
C281        C282   1.398       .  A
C281       Br288   1.917       .  S
C282        C283   1.402       .  A
C282        H287   1.084       .  S
C283        C284   1.413       .  A
C284       Br285   1.921       .  S
C289        C290   1.403       .  A
C289        C294   1.407       .  A
C289        H296   1.083       .  S
C290        C291   1.408       .  A
C291        C292   1.402       .  A
C291       Br298   1.914       .  S
C292        C293   1.404       .  A
C292        H297   1.084       .  S
C293        C294   1.413       .  A
C294       Br295   1.918       .  S
C299        C300   1.402       .  A
C299        C304   1.398       .  A
C299        H306   1.083       .  S
C300        C301   1.417       .  A
C301        C302   1.396       .  A
C301       Br308   1.923       .  S
C302        C303   1.397       .  A
C302        H795   1.080       .  S
C303        C304   1.410       .  A
C304       Br305   1.919       .  S
H307        C790   1.082       .  S
C309        C310   1.403       .  A
C309        C314   1.406       .  A
C309        H316   1.084       .  S
C310        C311   1.405       .  A
C311        C312   1.395       .  A
C311       Br318   1.918       .  S
C312        C313   1.410       .  A
C312        H317   1.083       .  S
C313        C314   1.420       .  A
C314       Br315   1.921       .  S
C319        C320   1.404       .  A
C319        C324   1.406       .  A
C319        H326   1.084       .  S
C320        C321   1.404       .  A
C321        C322   1.395       .  A
C321       Br328   1.920       .  S
C322        C323   1.407       .  A
C322        H327   1.083       .  S
C323        C324   1.416       .  A
C324       Br325   1.920       .  S
C329        C330   1.404       .  A
C329        C334   1.400       .  A
C329        H336   1.084       .  S
C330        C331   1.413       .  A
C331        C332   1.410       .  A
C331       Br338   1.917       .  S
C332        C333   1.404       .  A
C332        H337   1.083       .  S
C333        C334   1.407       .  A
C334       Br335   1.915       .  S
C339        C340   1.401       .  A
C339        C344   1.406       .  A
C339        H346   1.084       .  S
C340        C341   1.406       .  A
C341        C342   1.393       .  A
C341       Br348   1.920       .  S
C342        C343   1.407       .  A
C342        H347   1.083       .  S
C343        C344   1.421       .  A
C344       Br345   1.922       .  S
C349        C350   1.406       .  A
C349        C354   1.402       .  A
C349        H356   1.084       .  S
C350        C351   1.407       .  A
C351        C352   1.400       .  A
C351       Br358   1.918       .  S
C352        C353   1.405       .  A
C352        H357   1.084       .  S
C353        C354   1.410       .  A
C354       Br355   1.920       .  S
C359        C360   1.404       .  A
C359        C364   1.408       .  A
C359        H366   1.082       .  S
C360        C361   1.406       .  A
C361        C362   1.404       .  A
C361       Br368   1.913       .  S
C362        C363   1.407       .  A
C362        H367   1.084       .  S
C363        C364   1.414       .  A
C364       Br365   1.918       .  S
C369        C370   1.398       .  A
C369        C374   1.400       .  A
C369        H864   1.082   1_545  S
C370        C371   1.410       .  A
C371        C372   1.395       .  A
C371       Br378   1.922       .  S
C372        C373   1.405       .  A
C372        H377   1.083       .  S
C373        C374   1.420       .  A
C374       Br375   1.922   1_545  S
H376        C857   1.083   1_565  S
C379        C380   1.406   1_545  A
C379        C384   1.390       .  A
C379        H386   1.083       .  S
C380        C381   1.416       .  A
C381        C382   1.405       .  A
C381       Br388   1.920       .  S
C382        C383   1.402   1_565  A
C382        H387   1.084       .  S
C383        C384   1.404       .  A
C384       Br873   1.921       .  S
Br385       C872   1.922       .  S
C389        C390   1.402       .  A
C389        C394   1.407       .  A
C389        H396   1.083   1_545  S
C390        C391   1.408       .  A
C391        C392   1.408       .  A
C391       Br886   1.914       .  S
C392        C393   1.407       .  A
C392        H397   1.083       .  S
C393        C394   1.415       .  A
C394       Br395   1.918   1_545  S
Br398       C879   1.913       .  S
C399        C400   1.410       .  A
C399        C404   1.396       .  A
C399        H406   1.083       .  S
C400        C401   1.420   1_565  A
C401        C402   1.400   1_545  A
C401       Br408   1.923       .  S
C402        C403   1.400       .  A
C402        H895   1.083   1_565  S
C403        C404   1.404       .  A
C404       Br405   1.920       .  S
H407        C890   1.083   1_545  S
C409        C410   1.406       .  A
C409        C414   1.404   1_565  A
C409        H416   1.083   1_565  S
C410        C411   1.405       .  A
C411        C412   1.392       .  A
C411       Br418   1.920       .  S
C412        C413   1.405       .  A
C412        H417   1.084       .  S
C413        C414   1.408   1_565  A
C414       Br415   1.917       .  S
C419        C420   1.403       .  A
C419        C424   1.409       .  A
C419        H426   1.081   1_565  S
C420        C421   1.410       .  A
C421        C422   1.403       .  A
C421       Br916   1.916       .  S
C422        C423   1.405       .  A
C422        H427   1.084       .  S
C423        C424   1.415       .  A
C424       Br425   1.918   1_565  S
Br428       C909   1.917       .  S
C429        C430   1.400       .  A
C429        C434   1.401       .  A
C429        H436   1.084   1_655  S
C430        C431   1.407       .  A
C431        C432   1.402       .  A
C431       Br438   1.917       .  S
C432        C433   1.407       .  A
C432        H437   1.083       .  S
C433        C434   1.418       .  A
C434       Br435   1.922   1_655  S
C439        C440   1.405   1_655  A
C439        C444   1.402       .  A
C439        H446   1.083       .  S
C440        C441   1.416       .  A
C441        C442   1.410       .  A
C441       Br448   1.919       .  S
C442        C443   1.404   1_455  A
C442        H447   1.083       .  S
C443        C444   1.408       .  A
C444       Br445   1.915       .  S
C449        C450   1.399   1_455  A
C449        C454   1.396       .  A
C449        H456   1.084       .  S
C450        C451   1.413       .  A
C451        C452   1.397       .  A
C451       Br458   1.919       .  S
C452        C453   1.397       .  A
C452        H457   1.083       .  S
C453        C454   1.412   1_655  A
C454       Br455   1.921   1_554  S
C459        C460   1.406       .  A
C459        C464   1.400       .  A
C459        H466   1.084       .  S
C460        C461   1.406       .  A
C461        C462   1.395       .  A
C461       Br468   1.920   1_455  S
C462        C463   1.403       .  A
C462        H467   1.084   1_455  S
C463        C464   1.406       .  A
C464       Br465   1.918       .  S
C469        C470   1.407   1_655  A
C469        C474   1.409       .  A
C469        H476   1.083       .  S
C470        C471   1.412       .  A
C471        C472   1.402       .  A
C471       Br478   1.918       .  S
C472        C473   1.403   1_455  A
C472        H477   1.084       .  S
C473        C474   1.411       .  A
C474       Br475   1.916       .  S
C479        C480   1.408       .  A
C479        C484   1.396       .  A
C479        H486   1.084       .  S
C480        C481   1.411   1_455  A
C481        C482   1.399       .  A
C481       Br488   1.921       .  S
C482        C483   1.405   1_655  A
C482        H487   1.084       .  S
C483        C484   1.403       .  A
C484       Br485   1.915       .  S
N489        C490   1.356       .  A
N489        C958   1.447       .  S
C490        C971   1.464       .  S
C491        C492   1.366       .  A
C491        H494   1.083       .  S
C492        C493   1.380       .  A
C492        H495   1.082       .  S
C493        C948   1.473       .  S
N496        C497   1.360       .  A
N496        C931   1.447       .  S
C497        C941   1.474       .  S
C498        C499   1.364   1_554  A
C498        H501   1.082   1_554  S
C499        C500   1.381   1_556  A
C499        H502   1.083       .  S
C500        C918   1.466   1_554  S
N503        C504   1.359       .  A
N503        C908   1.445       .  S
C504        C891   1.475       .  S
C505        C506   1.363       .  A
C505        H508   1.083       .  S
C506        C507   1.382       .  A
C506        H509   1.082       .  S
C507        C898   1.475       .  S
N510        C511   1.357       .  A
N510        C878   1.444       .  S
C511        C858   1.467       .  S
C512        C513   1.363       .  A
C512        H515   1.083       .  S
C513        C514   1.380       .  A
C513        H516   1.083       .  S
C514        C871   1.471       .  S
N517        C518   1.360       .  A
N517        C848   1.447       .  S
C518        C828   1.473       .  S
C519        C520   1.366       .  A
C519        H522   1.083       .  S
C520        C521   1.379       .  A
C520        H523   1.082       .  S
C521        C838   1.468       .  S
N524        C525   1.361       .  A
N524        C821   1.446       .  S
C525        C798   1.475       .  S
C526        C527   1.368       .  A
C526        H529   1.082       .  S
C527        C528   1.379       .  A
C527        H530   1.082       .  S
C528        C808   1.472       .  S
N531        C532   1.360       .  A
N531        C778   1.447       .  S
C532        C791   1.474       .  S
C533        C534   1.367       .  A
C533        H536   1.082       .  S
C534        C535   1.380       .  A
C534        H537   1.082       .  S
C535        C768   1.469       .  S
N538        C539   1.363       .  A
N538        C748   1.451       .  S
C539        C761   1.471       .  S
C540        C541   1.368       .  A
C540        H543   1.082       .  S
C541        C542   1.381       .  A
C541        H544   1.082       .  S
C542        C741   1.471       .  S
O545       Mg547   2.143       .  S
O545       Mg553   2.130       .  S
O545        C580   1.242       .  S
C546        H585   1.085       .  S
C546        O559   1.236       .  S
C546        O583   1.270       .  A
Mg547       O576   2.125       .  S
Mg547       O591   2.328       .  S
Mg547       O587   2.270       .  S
Mg547       O558   2.309       .  S
O548       Mg590   2.134       .  S
O548       Mg573   2.120       .  S
O548        C569   1.240       .  S
O549        C580   1.276       .  A
O549       Mg573   2.316       .  S
C550        C811   1.491       .  S
C550        O552   1.275       .  A
C550        O564   1.272       .  A
O551        C579   1.274       .  A
O551       Mg553   2.300       .  S
O552       Mg584   2.270       .  S
Mg553       O559   2.123       .  S
Mg553       O567   2.236       .  S
Mg553       O555   2.306       .  S
C554        C758   1.496       .  S
C554        O592   1.271       .  A
C554        O560   1.276       .  A
O555        C562   1.274       .  A
H556        C569   1.081       .  S
C557        H582   1.083       .  S
C557        O571   1.240       .  S
C557        O572   1.276       .  A
O558        C581   1.272       .  A
O559       Mg573   2.123       .  S
O560       Mg590   2.329       .  S
C561        C851   1.485       .  S
C561        O574   1.276       .  A
C561        O566   1.281       .  A
C562        C841   1.482       .  S
C562        O589   1.273       .  A
Mg563       O570   2.139       .  S
Mg563       O571   2.136       .  S
Mg563       O564   2.304       .  S
Mg563       O565   2.297       .  S
Mg563       O592   2.244       .  S
O565        C569   1.273       .  A
O566       Mg573   2.356       .  S
O567        C586   1.270       .  A
O568        C588   1.283       .  A
O568       Mg584   2.371       .  S
O570       Mg584   2.131       .  S
O570        C581   1.238       .  S
O571       Mg590   2.152       .  S
O572       Mg584   2.320       .  S
Mg573       O589   2.259       .  S
O574       Mg590   2.288       .  S
H575        C580   1.083       .  S
O576       Mg584   2.118       .  S
O576        C579   1.240       .  S
H577        C579   1.081       .  S
H578        C581   1.085       .  S
O583       Mg590   2.300       .  S
C586        C788   1.477       .  S
C586        O591   1.276       .  A
O587        C588   1.273       .  A
C588        C818   1.494       .  S
O593       Mg595   2.141       .  S
O593       Mg601   2.124       .  S
O593        C628   1.242   1_545  S
C594        H633   1.080       .  S
C594        O607   1.236       .  S
C594        O631   1.271       .  A
Mg595       O624   2.130       .  S
Mg595       O639   2.333       .  S
Mg595       O635   2.294       .  S
Mg595       O606   2.306   1_545  S
O596       Mg638   2.132       .  S
O596       Mg621   2.115       .  S
O596        C617   1.241       .  S
O597        C628   1.278       .  A
O597       Mg621   2.331       .  S
C598        C868   1.484       .  S
C598        O600   1.271   1_565  A
C598        O612   1.273       .  A
O599        C627   1.275       .  A
O599       Mg601   2.303       .  S
O600       Mg632   2.244       .  S
Mg601       O607   2.150       .  S
Mg601       O615   2.240       .  S
Mg601       O603   2.321       .  S
C602        C831   1.496       .  S
C602        O640   1.273       .  A
C602        O608   1.273       .  A
O603        C610   1.272       .  A
H604        C617   1.082       .  S
C605        H630   1.081       .  S
C605        O619   1.242   1_545  S
C605        O620   1.276       .  A
O606        C629   1.271       .  A
O607       Mg621   2.112   1_545  S
O608       Mg638   2.312       .  S
C609        C911   1.487       .  S
C609        O622   1.273       .  A
C609        O614   1.280       .  A
C610        C901   1.480   1_545  S
C610        O637   1.267   1_545  A
Mg611       O618   2.146       .  S
Mg611       O619   2.128       .  S
Mg611       O612   2.317       .  S
Mg611       O613   2.302       .  S
Mg611       O640   2.263       .  S
O613        C617   1.275       .  A
O614       Mg621   2.361       .  S
O615        C634   1.272       .  A
O616        C636   1.280       .  A
O616       Mg632   2.349       .  S
O618       Mg632   2.120   1_565  S
O618        C629   1.237       .  S
O619       Mg638   2.133       .  S
O620       Mg632   2.317       .  S
Mg621       O637   2.234       .  S
O622       Mg638   2.276       .  S
H623        C628   1.083       .  S
O624       Mg632   2.117       .  S
O624        C627   1.241       .  S
H625        C627   1.082       .  S
H626        C629   1.083       .  S
O631       Mg638   2.307   1_545  S
C634        C801   1.491       .  S
C634        O639   1.277       .  A
O635        C636   1.276       .  A
C636        C881   1.491       .  S
O641       Mg643   2.142   1_565  S
O641       Mg649   2.133       .  S
O641        C676   1.241       .  S
C642        H681   1.086       .  S
C642        O655   1.237       .  S
C642        O679   1.271       .  A
Mg643       O672   2.123       .  S
Mg643       O687   2.317       .  S
Mg643       O683   2.275       .  S
Mg643       O654   2.304   1_455  S
O644       Mg686   2.123       .  S
O644       Mg669   2.104       .  S
O644        C665   1.240       .  S
O645        C676   1.276   1_655  A
O645       Mg669   2.316       .  S
C646        C921   1.468       .  S
C646        O648   1.274       .  A
C646        O660   1.272       .  A
O647        C675   1.274       .  A
O647       Mg649   2.303   1_545  S
O648       Mg680   2.257   1_655  S
Mg649       O655   2.123       .  S
Mg649       O663   2.234       .  S
Mg649       O651   2.309       .  S
C650        C888   1.494       .  S
C650        O688   1.272   1_565  A
C650        O656   1.273       .  A
O651        C658   1.274       .  A
H652        C665   1.081       .  S
C653        H678   1.081       .  S
C653        O667   1.241   1_455  S
C653        O668   1.275       .  A
O654        C677   1.271       .  A
O655       Mg669   2.127   1_455  S
O656       Mg686   2.282       .  S
C657        C961   1.483       .  S
C657        O670   1.272       .  A
C657        O662   1.280       .  A
C658        C951   1.472       .  S
C658        O685   1.271       .  A
Mg659       O666   2.138       .  S
Mg659       O667   2.145       .  S
Mg659       O660   2.284       .  S
Mg659       O661   2.291   1_545  S
Mg659       O688   2.281       .  S
O661        C665   1.272       .  A
O662       Mg669   2.354       .  S
O663        C682   1.268   1_565  A
O664        C684   1.285       .  A
O664       Mg680   2.371       .  S
O666       Mg680   2.133   1_655  S
O666        C677   1.237       .  S
O667       Mg686   2.128   1_545  S
O668       Mg680   2.310       .  S
Mg669       O685   2.243   1_655  S
O670       Mg686   2.272       .  S
H671        C676   1.081   1_655  S
O672       Mg680   2.116       .  S
O672        C675   1.240       .  S
H673        C675   1.081       .  S
H674        C677   1.084       .  S
O679       Mg686   2.302   1_455  S
C682        C861   1.484       .  S
C682        O687   1.276       .  A
O683        C684   1.273       .  A
C684        C928   1.500       .  S
O689       Mg691   2.169   1_655  S
O689       Mg697   2.115       .  S
O689        C724   1.242       .  S
C690        H729   1.083       .  S
C690        O703   1.237       .  S
C690        O727   1.272       .  A
Mg691       O720   2.122       .  S
Mg691       O735   2.350       .  S
Mg691       O731   2.305       .  S
Mg691       O702   2.303       .  S
O692       Mg734   2.127       .  S
O692       Mg717   2.092       .  S
O692        C713   1.241       .  S
O693        C724   1.279       .  A
O693       Mg717   2.343       .  S
C694        C771   1.473       .  S
C694        O696   1.274       .  A
C694        O708   1.272       .  A
O695        C723   1.275   1_655  A
O695       Mg697   2.313       .  S
O696       Mg728   2.263       .  S
Mg697       O703   2.145       .  S
Mg697       O711   2.238       .  S
Mg697       O699   2.329       .  S
C698        C968   1.484       .  S
C698        O736   1.271       .  A
C698        O704   1.273   1_455  A
O699        C706   1.274       .  A
H700        C713   1.081       .  S
C701        H726   1.082       .  S
C701        O715   1.241       .  S
C701        O716   1.274       .  A
O702        C725   1.272       .  A
O703       Mg717   2.113       .  S
O704       Mg734   2.304       .  S
C705        C751   1.498       .  S
C705        O718   1.274       .  A
C705        O710   1.279       .  A
C706        C738   1.476       .  S
C706        O733   1.264       .  A
Mg707       O714   2.130       .  S
Mg707       O715   2.134       .  S
Mg707       O708   2.292       .  S
Mg707       O709   2.291   1_455  S
Mg707       O736   2.235       .  S
O709        C713   1.273       .  A
O710       Mg717   2.351       .  S
O711        C730   1.268       .  A
O712        C732   1.282       .  A
O712       Mg728   2.357       .  S
O714       Mg728   2.130       .  S
O714        C725   1.238       .  S
O715       Mg734   2.133   1_455  S
O716       Mg728   2.305       .  S
Mg717       O733   2.222       .  S
O718       Mg734   2.282       .  S
H719        C724   1.083       .  S
O720       Mg728   2.119       .  S
O720        C723   1.241       .  S
H721        C723   1.081       .  S
H722        C725   1.081       .  S
O727       Mg734   2.309       .  S
C730        C938   1.484       .  S
C730        O735   1.278   1_655  A
O731        C732   1.278       .  A
C732        C781   1.495       .  S
C737        C738   1.403       .  A
C737        C742   1.400       .  A
C737        H744   1.083       .  S
C738        C739   1.416       .  A
C739        C740   1.393       .  A
C739       Br746   1.924       .  S
C740        C741   1.398       .  A
C740        H745   1.084       .  S
C741        C742   1.410       .  A
C742       Br743   1.915       .  S
C747        C748   1.402       .  A
C747        C752   1.406       .  A
C747        H754   1.078       .  S
C748        C749   1.410       .  A
C749        C750   1.406       .  A
C749       Br756   1.915   1_556  S
C750        C751   1.408       .  A
C750        H755   1.083       .  S
C751        C752   1.417       .  A
C752       Br753   1.920       .  S
C757        C758   1.410       .  A
C757        C762   1.394       .  A
C757        H764   1.083       .  S
C758        C759   1.419       .  A
C759        C760   1.405       .  A
C759       Br766   1.922       .  S
C760        C761   1.403       .  A
C761        C762   1.405       .  A
C762       Br763   1.921       .  S
C767        C768   1.400       .  A
C767        C772   1.397       .  A
C767        H774   1.084       .  S
C768        C769   1.409       .  A
C769        C770   1.399       .  A
C769       Br776   1.917       .  S
C770        C771   1.402       .  A
C770        H775   1.084       .  S
C771        C772   1.412       .  A
C772       Br773   1.921       .  S
C777        C778   1.404       .  A
C777        C782   1.411       .  A
C777        H784   1.083       .  S
C778        C779   1.408       .  A
C779        C780   1.403       .  A
C779       Br786   1.916       .  S
C780        C781   1.406       .  A
C780        H785   1.084       .  S
C781        C782   1.415       .  A
C782       Br783   1.917       .  S
C787        C788   1.400       .  A
C787        C792   1.399       .  A
C787        H794   1.083       .  S
C788        C789   1.414       .  A
C789        C790   1.398       .  A
C789       Br796   1.920       .  S
C790        C791   1.398       .  A
C791        C792   1.413       .  A
C792       Br793   1.920       .  S
C797        C798   1.403       .  A
C797        C802   1.407       .  A
C797        H804   1.084       .  S
C798        C799   1.407       .  A
C799        C800   1.392       .  A
C799       Br806   1.921       .  S
C800        C801   1.406       .  A
C800        H805   1.083       .  S
C801        C802   1.419       .  A
C802       Br803   1.921       .  S
C807        C808   1.399       .  A
C807        C812   1.402       .  A
C807        H814   1.083       .  S
C808        C809   1.404       .  A
C809        C810   1.397       .  A
C809       Br816   1.920       .  S
C810        C811   1.408       .  A
C810        H815   1.083       .  S
C811        C812   1.420       .  A
C812       Br813   1.922       .  S
C817        C818   1.407       .  A
C817        C822   1.406       .  A
C817        H824   1.083       .  S
C818        C819   1.416       .  A
C819        C820   1.406       .  A
C819       Br826   1.920       .  S
C820        C821   1.402       .  A
C820        H825   1.082       .  S
C821        C822   1.408       .  A
C822       Br823   1.912       .  S
C827        C828   1.401       .  A
C827        C832   1.405       .  A
C827        H834   1.084       .  S
C828        C829   1.404       .  A
C829        C830   1.396       .  A
C829       Br836   1.918       .  S
C830        C831   1.409       .  A
C830        H835   1.083       .  S
C831        C832   1.421       .  A
C832       Br833   1.923       .  S
C837        C838   1.403       .  A
C837        C842   1.402       .  A
C837        H844   1.084       .  S
C838        C839   1.404       .  A
C839        C840   1.395       .  A
C839       Br846   1.919       .  S
C840        C841   1.407       .  A
C840        H845   1.084       .  S
C841        C842   1.414       .  A
C842       Br843   1.920       .  S
C847        C848   1.406       .  A
C847        C852   1.409       .  A
C847        H854   1.082       .  S
C848        C849   1.409       .  A
C849        C850   1.403       .  A
C849       Br856   1.916       .  S
C850        C851   1.404       .  A
C850        H855   1.084       .  S
C851        C852   1.410       .  A
C852       Br853   1.916       .  S
C857        C858   1.397       .  A
C857        C862   1.398       .  A
C858        C859   1.407       .  A
C859        C860   1.395       .  A
C859       Br866   1.919       .  S
C860        C861   1.405       .  A
C860        H865   1.083       .  S
C861        C862   1.420       .  A
C862       Br863   1.923   1_545  S
C867        C868   1.406   1_545  A
C867        C872   1.390       .  A
C867        H874   1.084       .  S
C868        C869   1.416       .  A
C869        C870   1.406       .  A
C869       Br876   1.919       .  S
C870        C871   1.403   1_565  A
C870        H875   1.083       .  S
C871        C872   1.405       .  A
C877        C878   1.400       .  A
C877        C882   1.404       .  A
C877        H884   1.083   1_545  S
C878        C879   1.408       .  A
C879        C880   1.406       .  A
C880        C881   1.407       .  A
C880        H885   1.083       .  S
C881        C882   1.415       .  A
C882       Br883   1.918   1_545  S
C887        C888   1.410       .  A
C887        C892   1.394       .  A
C887        H894   1.083       .  S
C888        C889   1.420   1_565  A
C889        C890   1.404   1_545  A
C889       Br896   1.921       .  S
C890        C891   1.402       .  A
C891        C892   1.405       .  A
C892       Br893   1.921       .  S
C897        C898   1.405       .  A
C897        C902   1.405   1_565  A
C897        H904   1.083   1_565  S
C898        C899   1.407       .  A
C899        C900   1.389       .  A
C899       Br906   1.923       .  S
C900        C901   1.405       .  A
C900        H905   1.084       .  S
C901        C902   1.413   1_565  A
C902       Br903   1.919       .  S
C907        C908   1.402       .  A
C907        C912   1.407       .  A
C907        H914   1.082   1_565  S
C908        C909   1.411       .  A
C909        C910   1.403       .  A
C910        C911   1.404       .  A
C910        H915   1.084       .  S
C911        C912   1.413       .  A
C912       Br913   1.917   1_565  S
C917        C918   1.400       .  A
C917        C922   1.395       .  A
C917        H924   1.084   1_655  S
C918        C919   1.408       .  A
C919        C920   1.396       .  A
C919       Br926   1.918       .  S
C920        C921   1.401       .  A
C920        H925   1.084       .  S
C921        C922   1.411       .  A
C922       Br923   1.921   1_655  S
C927        C928   1.406   1_655  A
C927        C932   1.403       .  A
C927        H934   1.083       .  S
C928        C929   1.420       .  A
C929        C930   1.409       .  A
C929       Br936   1.920       .  S
C930        C931   1.402   1_455  A
C930        H935   1.082       .  S
C931        C932   1.410       .  A
C932       Br933   1.916       .  S
C937        C938   1.405   1_455  A
C937        C942   1.405   1_455  A
C937        H944   1.083       .  S
C938        C939   1.417       .  A
C939        C940   1.395       .  A
C939       Br946   1.924       .  S
C940        C941   1.397       .  A
C940        H945   1.082       .  S
C941        C942   1.410       .  A
C942       Br943   1.918   1_655  S
C947        C948   1.406       .  A
C947        C952   1.399       .  A
C947        H954   1.083       .  S
C948        C949   1.407       .  A
C949        C950   1.397       .  A
C949       Br956   1.919   1_455  S
C950        C951   1.404       .  A
C950        H955   1.084   1_455  S
C951        C952   1.406       .  A
C952       Br953   1.918       .  S
C957        C958   1.406   1_655  A
C957        C962   1.407       .  A
C957        H964   1.083       .  S
C958        C959   1.410       .  A
C959        C960   1.402       .  A
C959       Br966   1.916       .  S
C960        C961   1.403   1_455  A
C960        H965   1.084       .  S
C961        C962   1.410       .  A
C962       Br963   1.917       .  S
C967        C968   1.408       .  A
C967        C972   1.391       .  A
C967        H974   1.083       .  S
C968        C969   1.416   1_455  A
C969        C970   1.400       .  A
C969       Br976   1.922       .  S
C970        C971   1.402   1_655  A
C970        H975   1.084       .  S
C971        C972   1.400       .  A
C972       Br973   1.916       .  S
