geometry optimzed in LAMMPS
_audit_creation_date              2020-12-01 
_audit_creation_method            'lammps2cif' 
_symmetry_space_group_name_H-M    'P1' 
_symmetry_Int_Tables_number       1 
_symmetry_cell_setting            triclinic 
loop_ 
_symmetry_equiv_pos_as_xyz 
  x,y,z 
_cell_length_a                    38.03917019 
_cell_length_b                    38.11833789636561 
_cell_length_c                    28.47680077324409 
_cell_angle_alpha                 89.86559063580943 
_cell_angle_beta                  89.94043783622325 
_cell_angle_gamma                 91.45859757298544 
loop_ 
_atom_site_label 
_atom_site_type_symbol 
_atom_site_fract_x 
_atom_site_fract_y 
_atom_site_fract_z 
_atom_site_charge 
N1          N  0.03297486  0.77132447  0.46448821    -0.03000
C2          C  0.04609470  0.73905133  0.45649740    -0.00400
C3          C  0.06950603  0.72997430  0.99132182    -0.23300
C4          C  0.07136924  0.75756238  0.02180367    -0.23500
C5          C  0.04913103  0.78257970  0.00462386    -0.00500
H6          H  0.08250512  0.70519812  0.99514971     0.13200
H7          H  0.08597173  0.75862612  0.05439421     0.13300
N8          N  0.96333817  0.23085915  0.02075505    -0.03000
C9          C  0.95946999  0.26589250  0.02569872    -0.00400
C10         C  0.94277723  0.27973996  0.48722262    -0.23300
C11         C  0.93593716  0.25234319  0.45729926    -0.23500
C12         C  0.94853289  0.22270981  0.47881819    -0.00500
H13         H  0.93678228  0.30699844  0.48127789     0.13200
H14         H  0.92428213  0.25399678  0.42273541     0.13300
N15         N  0.72737330  0.96412458  0.48688385    -0.03000
C16         C  0.76240965  0.95916941  0.48052029    -0.00400
C17         C  0.77953796  0.95737475  0.02317296    -0.23300
C18         C  0.75475827  0.96182162  0.05716428    -0.23500
C19         C  0.72322125  0.96625575  0.03427169    -0.00500
H20         H  0.80758702  0.95559925  0.02873623     0.13200
H21         H  0.75943708  0.96328855  0.09460522     0.13300
N22         N  0.26614044  0.04685470  0.02192940    -0.03000
C23         C  0.23137810  0.05344930  0.02860514    -0.00400
C24         C  0.21504705  0.05958618  0.48627050    -0.23300
C25         C  0.23973524  0.05574094  0.45207513    -0.23500
C26         C  0.27063469  0.04740875  0.47443556    -0.00500
H27         H  0.18723240  0.06321337  0.48060292     0.13200
H28         H  0.23514783  0.05687982  0.41460054     0.13300
N29         N  0.45346470  0.73428145  0.47726638    -0.03000
C30         C  0.44198477  0.76756413  0.47157597    -0.00400
C31         C  0.42455400  0.77861405  0.01128092    -0.23300
C32         C  0.42501333  0.75160061  0.04269178    -0.23500
C33         C  0.44290898  0.72495890  0.02140291    -0.00500
H34         H  0.41409610  0.80434209  0.01750623     0.13200
H35         H  0.41478450  0.75182281  0.07817240     0.13300
N36         N  0.54061727  0.27561516  0.03684470    -0.03000
C37         C  0.55167895  0.24244758  0.04421610    -0.00400
C38         C  0.57266424  0.23157009  0.50763817    -0.23300
C39         C  0.57502445  0.25888711  0.47656643    -0.23500
C40         C  0.55542786  0.28553023  0.49511166    -0.00500
H41         H  0.58337604  0.20577507  0.50292706     0.13200
H42         H  0.58793276  0.25870453  0.44267808     0.13300
N43         N  0.23355315  0.46109121  0.02678950    -0.03000
C44         C  0.26809583  0.45325521  0.03051233    -0.00400
C45         C  0.28281899  0.44940463  0.48648603    -0.23300
C46         C  0.25676031  0.45517295  0.45450477    -0.23500
C47         C  0.22700865  0.46253458  0.48001058    -0.00500
H48         H  0.31024239  0.44531654  0.47852485     0.13200
H49         H  0.25944225  0.45523693  0.41666328     0.13300
N50         N  0.77179450  0.54369512  0.47840374    -0.03000
C51         C  0.73835495  0.55528684  0.47550351    -0.00400
C52         C  0.72579122  0.56347349  0.01959916    -0.23300
C53         C  0.75211245  0.55675389  0.05079441    -0.23500
C54         C  0.77990713  0.54469521  0.02475396    -0.00500
H55         H  0.69928537  0.57078345  0.02844875     0.13200
H56         H  0.75068698  0.55896876  0.08862848     0.13300
O57         O  0.47623777  0.51629163  0.17751946    -0.87900
C58         C  0.45120760  0.56035737  0.30297071     0.88100
Mg59       Mg  0.47201236  0.46118665  0.16352898     1.58100
O60         O  0.54134238  0.55892953  0.27920948    -0.87600
O61         O  0.51532597  0.55990718  0.17524410    -0.75000
C62         C  0.54347136  0.39297737  0.35386653     0.93200
O63         O  0.41834137  0.49091006  0.25237540    -0.74800
O64         O  0.52551429  0.38408933  0.31791389    -0.82300
Mg65       Mg  0.43138868  0.53998473  0.20803018     1.58000
C66         C  0.61248630  0.52525876  0.37286953     0.93100
O67         O  0.44137685  0.58847453  0.16025941    -0.80500
H68         H  0.58171412  0.56988663  0.23608036    -0.05900
C69         C  0.49965625  0.47993725  0.35808394     0.88000
O70         O  0.53133540  0.45643562  0.17674196    -0.75000
O71         O  0.46406065  0.56033185  0.26301839    -0.87800
O72         O  0.58935563  0.54865160  0.36789443    -0.80600
C73         C  0.51192391  0.63259743  0.35026820     0.93200
C74         C  0.45578073  0.61898801  0.16277741     0.93100
Mg75       Mg  0.56862785  0.47160520  0.30810287     1.58000
O76         O  0.55812726  0.42336260  0.35667685    -0.80500
O77         O  0.58192425  0.52055572  0.26310253    -0.74800
O78         O  0.49971533  0.62926978  0.30848585    -0.80600
O79         O  0.39381623  0.51740200  0.15415691    -0.82300
O80         O  0.50106368  0.38304049  0.20841979    -0.80700
C81         C  0.56890172  0.55088545  0.25903508     0.87500
O82         O  0.53623289  0.45164357  0.25315263    -0.87800
O83         O  0.52422350  0.49596904  0.33808800    -0.87900
O84         O  0.48436898  0.45302731  0.34006134    -0.75000
Mg85       Mg  0.50757284  0.59295259  0.24240660     1.58000
O86         O  0.53135034  0.60928167  0.36790921    -0.82300
H87         H  0.50929194  0.52367408  0.12348842    -0.06100
O88         O  0.45929116  0.45309989  0.23575873    -0.87600
H89         H  0.41866083  0.44120911  0.27801298    -0.05900
H90         H  0.57767196  0.44886068  0.21012759    -0.06100
C91         C  0.43147695  0.46061538  0.25566803     0.87500
C92         C  0.50028248  0.53287643  0.15719554     0.88100
C93         C  0.54958474  0.45178852  0.21350108     0.88100
H94         H  0.49039119  0.48955234  0.39145053    -0.06000
O95         O  0.46999464  0.55616995  0.33939594    -0.75100
Mg96       Mg  0.49253193  0.41945019  0.27348867     1.58000
H97         H  0.42315917  0.56324242  0.30695576    -0.06100
C98         C  0.38880307  0.48567914  0.14146309     0.93100
O99         O  0.47128044  0.40263971  0.14690692    -0.82300
C100        C  0.49023207  0.37952473  0.16609865     0.93200
O101        O  0.47391328  0.62832774  0.19843188    -0.82300
Mg102      Mg  0.52956781  0.55100608  0.35160084     1.58200
O103        O  0.41286243  0.46321457  0.14581419    -0.80600
O104        O  0.60600021  0.49348656  0.36178681    -0.82300
O105        O  0.51711861  0.02174608  0.17529907    -0.87900
C106        C  0.56309830  0.03504870  0.30407646     0.88100
Mg107      Mg  0.46736312  0.04227582  0.15611791     1.58100
O108        O  0.53199872  0.94924574  0.28209573    -0.87600
O109        O  0.54520314  0.97193843  0.17816999    -0.75000
C110        C  0.37262398  0.00063430  0.33984751     0.93200
O111        O  0.51072311  0.08564994  0.24657441    -0.74800
O112        O  0.36971489  0.01297395  0.29879048    -0.82300
Mg113      Mg  0.55419250  0.05715993  0.20643484     1.58000
C114        C  0.47220872  0.89516887  0.37375137     0.93100
O115        O  0.59713002  0.03024537  0.16154805    -0.80500
H116        H  0.53023729  0.90624309  0.24186555    -0.05900
C117        C  0.46870490  0.01449999  0.35196389     0.88000
O118        O  0.44211889  0.98744477  0.16909043    -0.75000
O119        O  0.55926611  0.02189493  0.26466913    -0.87800
O120        O  0.50293476  0.90900498  0.36952578    -0.80600
C121        C  0.60999074  0.95719456  0.35729515     0.93200
C122        C  0.62071363  0.00783770  0.16970384     0.93100
Mg123      Mg  0.43926287  0.95099088  0.30439518     1.58000
O124        O  0.39657719  0.97890218  0.34934178    -0.80500
O125        O  0.48228718  0.92150906  0.26436268    -0.74800
O126        O  0.61153724  0.96905198  0.31531225    -0.80600
O127        O  0.54841014  0.09782412  0.14970007    -0.82300
O128        O  0.38167759  0.03763412  0.19398998    -0.80700
C129        C  0.51570663  0.92480026  0.26240557     0.87500
O130        O  0.43433213  0.98530597  0.24523332    -0.87800
O131        O  0.47685087  0.98611602  0.33430223    -0.87900
O132        O  0.44825089  0.03559241  0.33126638    -0.75000
Mg133      Mg  0.57673319  0.97123467  0.24783646     1.58000
O134        O  0.58088231  0.94609725  0.37479729    -0.82300
H135        H  0.51458041  0.98646830  0.12340559    -0.06100
O136        O  0.46126901  0.05796215  0.22742772    -0.87600
H137        H  0.46250765  0.10056666  0.26838047    -0.05900
H138        H  0.41910923  0.94587774  0.20299735    -0.06100
C139        C  0.47730293  0.08228448  0.24773611     0.87500
C140        C  0.52522392  0.99342110  0.15741272     0.88100
C141        C  0.43106805  0.97181124  0.20595549     0.88100
H142        H  0.47951167  0.02174678  0.38577286    -0.06000
O143        O  0.55223741  0.01927326  0.34093463    -0.75100
Mg144      Mg  0.41652624  0.03581211  0.26145316     1.58000
H145        H  0.57543187  0.06080467  0.30717311    -0.06100
C146        C  0.52074867  0.11298726  0.13619615     0.93100
O147        O  0.41277520  0.06012610  0.13462399    -0.82300
C148        C  0.38347192  0.04947997  0.15203506     0.93200
O149        O  0.62344029  0.99375320  0.20983409    -0.82300
Mg150      Mg  0.52642273  0.96467786  0.35347657     1.58200
O151        O  0.49050834  0.09785466  0.13921566    -0.80600
O152        O  0.44504316  0.91195016  0.36229602    -0.82300
O153        O  0.01790087  0.98958878  0.16345193    -0.87900
C154        C  0.04058851  0.94495307  0.28918956     0.88100
Mg155      Mg  0.02442508  0.04454450  0.15067321     1.58100
O156        O  0.95032508  0.94955269  0.26748362    -0.87600
O157        O  0.97579502  0.94876463  0.16271872    -0.75000
C158        C  0.95376964  0.11489337  0.33983423     0.93200
O159        O  0.07598809  0.01252426  0.23892487    -0.74800
O160        O  0.97165149  0.12333573  0.30359265    -0.82300
Mg161      Mg  0.06138403  0.96397434  0.19430336     1.58000
C162        C  0.88113717  0.98465419  0.36353514     0.93100
O163        O  0.04944861  0.91559152  0.14647913    -0.80500
H164        H  0.90884420  0.93858069  0.22646881    -0.05900
C165        C  0.99437508  0.02700020  0.34583320     0.88000
O166        O  0.96491345  0.05058763  0.16356881    -0.75000
O167        O  0.02758395  0.94533448  0.24935374    -0.87800
O168        O  0.90369918  0.96067744  0.35857634    -0.80600
C169        C  0.97897548  0.87446606  0.33670140     0.93200
C170        C  0.03302200  0.88601160  0.14957219     0.93100
Mg171      Mg  0.92550553  0.03687921  0.29576688     1.58000
O172        O  0.93765984  0.08522879  0.34314758    -0.80500
O173        O  0.91004657  0.98825392  0.25204944    -0.74800
O174        O  0.98968464  0.87821844  0.29434073    -0.80600
O175        O  0.10053063  0.98529364  0.14074738    -0.82300
O176        O  0.99497375  0.12224488  0.19385699    -0.80700
C177        C  0.92243656  0.95768118  0.24833056     0.87500
O178        O  0.95876216  0.05521201  0.24003883    -0.87800
O179        O  0.96937920  0.01148503  0.32619920    -0.87900
O180        O  0.01050316  0.05327877  0.32717968    -0.75000
Mg181      Mg  0.98249276  0.91495231  0.22941764     1.58000
O182        O  0.96038849  0.89770861  0.35619695    -0.82300
H183        H  0.98367942  0.98444576  0.11046397    -0.06100
O184        O  0.03585877  0.05136231  0.22306855    -0.87600
H185        H  0.07665261  0.06192607  0.26546964    -0.05900
H186        H  0.91801114  0.05769936  0.19590816    -0.06100
C187        C  0.06343210  0.04303363  0.24290874     0.87500
C188        C  0.99252460  0.97461454  0.14395858     0.88100
C189        C  0.94605316  0.05490343  0.19998985     0.88100
H190        H  0.00329442  0.01743333  0.37942990    -0.06000
O191        O  0.02219027  0.94978971  0.32583696    -0.75100
Mg192      Mg  0.00330967  0.08642266  0.25981792     1.58000
H193        H  0.06853954  0.94125860  0.29286367    -0.06100
C194        C  0.10738369  0.01728233  0.13041874     0.93100
O195        O  0.02772366  0.10319463  0.13478813    -0.82300
C196        C  0.00742357  0.12577469  0.15231151     0.93200
O197        O  0.01406762  0.87846775  0.18514451    -0.82300
Mg198      Mg  0.96305760  0.95644876  0.33985625     1.58200
O199        O  0.08419309  0.04068437  0.13498119    -0.80600
O200        O  0.88779732  0.01606488  0.35044299    -0.82300
O201        O  0.98328052  0.48025280  0.16953100    -0.87900
C202        C  0.93343123  0.46561321  0.29453687     0.88100
Mg203      Mg  0.03426933  0.46070132  0.15505899     1.58100
O204        O  0.96545718  0.55100201  0.27454368    -0.87600
O205        O  0.95517378  0.53000618  0.16976011    -0.75000
C206        C  0.12288565  0.50223181  0.34749013     0.93200
O207        O  0.98732279  0.41590738  0.24061521    -0.74800
O208        O  0.12541119  0.48403645  0.31032053    -0.82300
Mg209      Mg  0.94519977  0.44398528  0.19748553     1.58000
C210        C  0.02011243  0.60747466  0.36945202     0.93100
O211        O  0.90301587  0.47027673  0.14999026    -0.80500
H212        H  0.96856648  0.59366072  0.23350429    -0.05900
C213        C  0.02579272  0.48709253  0.35104235     0.88000
O214        O  0.05842641  0.51528748  0.17112202    -0.75000
O215        O  0.93733274  0.47885931  0.25504071    -0.87800
O216        O  0.99030114  0.59209394  0.36350565    -0.80600
C217        C  0.88506538  0.54336775  0.34476992     0.93200
C218        C  0.87949262  0.49322238  0.15561043     0.93100
Mg219      Mg  0.05745375  0.55152553  0.30452530     1.58000
O220        O  0.09967193  0.52563201  0.35188797    -0.80500
O221        O  0.01550703  0.57944483  0.26055291    -0.74800
O222        O  0.88407368  0.53077775  0.30320121    -0.80600
O223        O  0.95437387  0.40360936  0.14137004    -0.82300
O224        O  0.11869396  0.46477667  0.19991791    -0.80700
C225        C  0.98232446  0.57553635  0.25573625     0.87500
O226        O  0.06545368  0.51657683  0.24762372    -0.87800
O227        O  0.01908426  0.51566050  0.33256161    -0.87900
O228        O  0.04599201  0.46515435  0.33171890    -0.75000
Mg229      Mg  0.92137796  0.53001674  0.23740006     1.58000
O230        O  0.91358013  0.55500447  0.36288820    -0.82300
H231        H  0.98759425  0.51513813  0.11709553    -0.06100
O232        O  0.03718213  0.44470958  0.22648161    -0.87600
H233        H  0.03456055  0.40143084  0.26635531    -0.05900
H234        H  0.08100736  0.55638898  0.20604391    -0.06100
C235        C  0.02054623  0.41980887  0.24481051     0.87500
C236        C  0.97576760  0.50839834  0.15055884     0.88100
C237        C  0.06916795  0.53036133  0.20845067     0.88100
H238        H  0.01345951  0.48021658  0.38413475    -0.06000
O239        O  0.94367286  0.48142879  0.33162695    -0.75100
Mg240      Mg  0.08072815  0.46503523  0.26498522     1.58000
H241        H  0.92160901  0.43961117  0.29752760    -0.06100
C242        C  0.98315360  0.38943604  0.13018552     0.93100
O243        O  0.08975374  0.44356958  0.13768078    -0.82300
C244        C  0.11810259  0.45422525  0.15732718     0.93200
O245        O  0.87616236  0.50954363  0.19417288    -0.82300
Mg246      Mg  0.96838883  0.53630281  0.34633868     1.58200
O247        O  0.01270924  0.40536605  0.13594911    -0.80600
O248        O  0.04865190  0.59214234  0.36033303    -0.82300
C249        C  0.81215537  0.53196533  0.04718143     0.00300
C250        C  0.81723300  0.49561454  0.05040339    -0.11600
C251        C  0.84018608  0.48190370  0.08419594     0.02500
C252        C  0.85786657  0.50489470  0.11554320     0.00200
C253        C  0.85467898  0.54127487  0.10950105    -0.11500
C254        C  0.83224905  0.55485619  0.07569362     0.02400
H255        H  0.80135239  0.47785435  0.02901415     0.15400
H256        H  0.86914312  0.55927535  0.13227306     0.15400
C257        C  0.82883169  0.59244310  0.07243057     0.37100
C258        C  0.84292519  0.44435445  0.08847131     0.37000
N259        N  0.82598635  0.62262314  0.56975806    -0.43300
N260        N  0.84506003  0.41422305  0.09187116    -0.43300
C261        C  0.79725840  0.54361115  0.44072992     0.00300
C262        C  0.80892108  0.51185296  0.42239313    -0.11600
C263        C  0.83621798  0.51139888  0.38903846     0.02500
C264        C  0.85279632  0.54316341  0.37417143     0.00200
C265        C  0.84095545  0.57491449  0.39241906    -0.11500
C266        C  0.81324874  0.57534040  0.42500743     0.02400
H267        H  0.79747314  0.48737537  0.43520098     0.15400
H268        H  0.85386685  0.59938993  0.38189231     0.15400
C269        C  0.80254729  0.60857360  0.44360571     0.37100
C270        C  0.84837792  0.47790085  0.37307404     0.37000
N271        N  0.79393913  0.63522622  0.45854444    -0.43300
N272        N  0.85811327  0.45097437  0.36052719    -0.43300
C273        C  0.71336756  0.54807671  0.43694610     0.00300
C274        C  0.69331421  0.57581458  0.42008346    -0.11600
C275        C  0.66102128  0.56939398  0.39743573     0.02500
C276        C  0.64800393  0.53444113  0.39213406     0.00200
C277        C  0.66969271  0.50683646  0.40582638    -0.11500
C278        C  0.70183755  0.51330399  0.42823120     0.02400
H279        H  0.70188730  0.60262695  0.42728850     0.15400
H280        H  0.66075504  0.47980878  0.40142548     0.15400
C281        C  0.72020363  0.48368309  0.44697886     0.37100
C282        C  0.64186778  0.59922320  0.38090512     0.37000
N283        N  0.73445512  0.45975535  0.46226285    -0.43300
N284        N  0.62672656  0.62321499  0.36748177    -0.43300
C285        C  0.19388826  0.47195653  0.45689846     0.00300
C286        C  0.18630778  0.50761442  0.45127979    -0.11600
C287        C  0.16215190  0.51840436  0.41714101     0.02500
C288        C  0.14591676  0.49320060  0.38747039     0.00200
C289        C  0.15197666  0.45743054  0.39546069    -0.11500
C290        C  0.17558993  0.44673095  0.42981960     0.02400
H291        H  0.20108138  0.52719524  0.47119605     0.15400
H292        H  0.13881639  0.43769127  0.37390750     0.15400
C293        C  0.18225232  0.40977564  0.43501288     0.37100
C294        C  0.15666609  0.55543336  0.41082607     0.37000
N295        N  0.18776141  0.38022859  0.43936210    -0.43300
N296        N  0.15227577  0.58513413  0.40575835    -0.43300
C297        C  0.20739739  0.45999256  0.06368310     0.00300
C298        C  0.18896767  0.49022545  0.07475391    -0.11600
C299        C  0.16099871  0.48898382  0.10698400     0.02500
C300        C  0.15053260  0.45684985  0.12831701     0.00200
C301        C  0.16914287  0.42657731  0.11757025    -0.11500
C302        C  0.19751357  0.42800135  0.08579038     0.02400
H303        H  0.19594181  0.51470240  0.05735120     0.15400
H304        H  0.16095984  0.40167553  0.13309142     0.15400
C305        C  0.21486820  0.39596135  0.07415064     0.37100
C306        C  0.14241119  0.52082994  0.11587681     0.37000
N307        N  0.22909402  0.37046903  0.56509441    -0.43300
N308        N  0.12774019  0.54656272  0.12259382    -0.43300
C309        C  0.35404089  0.47514532  0.12082111     0.00300
C310        C  0.32997188  0.50156215  0.11056989    -0.11600
C311        C  0.29882187  0.49407527  0.08612971     0.02500
C312        C  0.29092716  0.45946917  0.07163643     0.00200
C313        C  0.31309451  0.43250598  0.08548448    -0.11500
C314        C  0.34425913  0.43986166  0.11024836     0.02400
H315        H  0.33627007  0.52866142  0.11931853     0.15400
H316        H  0.30723089  0.40586659  0.07403203     0.15400
C317        C  0.36582768  0.41065947  0.12288586     0.37100
C318        C  0.27751010  0.52310579  0.57211596     0.37000
N319        N  0.38294713  0.38715641  0.13308839    -0.43300
N320        N  0.26083878  0.54660592  0.56066660    -0.43300
C321        C  0.53830096  0.21704274  0.07942062     0.00300
C322        C  0.50666970  0.19883570  0.06938847    -0.11600
C323        C  0.49958652  0.16529258  0.08824217     0.02500
C324        C  0.52445748  0.14966498  0.11822086     0.00200
C325        C  0.55455926  0.16957790  0.13135484    -0.11500
C326        C  0.56169745  0.20274168  0.11202183     0.02400
H327        H  0.48904689  0.20937842  0.04326549     0.15400
H328        H  0.57346467  0.15866671  0.15545698     0.15400
C329        C  0.59458512  0.22051735  0.62327844     0.37100
C330        C  0.46823770  0.14654788  0.07280706     0.37000
N331        N  0.62095465  0.23477883  0.63216197    -0.43300
N332        N  0.44317121  0.13152110  0.06021590    -0.43300
C333        C  0.54661500  0.31624731  0.46618426     0.00300
C334        C  0.56704943  0.34722181  0.46994374    -0.11600
C335        C  0.56676832  0.37281458  0.43422230     0.02500
C336        C  0.54547459  0.36747827  0.39374799     0.00200
C337        C  0.52400869  0.33689304  0.39157666    -0.11500
C338        C  0.52476386  0.31137862  0.42671132     0.02400
H339        H  0.58483573  0.35044512  0.49946024     0.15400
H340        H  0.50704918  0.33217061  0.36155163     0.15400
C341        C  0.50468822  0.27910098  0.41972472     0.37100
C342        C  0.58992874  0.40315262  0.43932807     0.37000
N343        N  0.48878309  0.25318057  0.41400742    -0.43300
N344        N  0.60867311  0.42732465  0.44363615    -0.43300
C345        C  0.52587028  0.29855196  0.07174281     0.00300
C346        C  0.54644881  0.30865908  0.11053058    -0.11600
C347        C  0.53476766  0.33356936  0.14296753     0.02500
C348        C  0.50155421  0.34907734  0.13699900     0.00200
C349        C  0.48045268  0.33776154  0.09900285    -0.11500
C350        C  0.49221942  0.31264445  0.06682806     0.02400
H351        H  0.57241245  0.29793651  0.11439049     0.15400
H352        H  0.45479834  0.34895394  0.09397565     0.15400
C353        C  0.46904218  0.30131589  0.02958816     0.37100
C354        C  0.55858168  0.34437637  0.17998711     0.37000
N355        N  0.44983066  0.29228170  0.00029468    -0.43300
N356        N  0.57770845  0.35310967  0.20956458    -0.43300
C357        C  0.45098351  0.79271541  0.43368788     0.00300
C358        C  0.48609363  0.80426468  0.42839372    -0.11600
C359        C  0.49432131  0.83700918  0.40761995     0.02500
C360        C  0.46686266  0.85857367  0.39164952     0.00200
C361        C  0.43219510  0.84481728  0.39273638    -0.11500
C362        C  0.42409805  0.81267389  0.41382843     0.02400
H363        H  0.50684399  0.78917724  0.44411633     0.15400
H364        H  0.41068267  0.85995999  0.37916753     0.15400
C365        C  0.38743451  0.80230355  0.41839707     0.37100
C366        C  0.53084176  0.84817843  0.40539638     0.37000
N367        N  0.35804190  0.79420869  0.42222490    -0.43300
N368        N  0.56016394  0.85698312  0.40363474    -0.43300
C369        C  0.45184657  0.69334122  0.04819384     0.00300
C370        C  0.42731942  0.66532130  0.04978019    -0.11600
C371        C  0.42788163  0.64054248  0.08635071     0.02500
C372        C  0.45350327  0.64378508  0.12236837     0.00200
C373        C  0.47900134  0.67109800  0.11905317    -0.11500
C374        C  0.47819629  0.69578441  0.08279012     0.02400
H375        H  0.40620990  0.66419377  0.02418894     0.15400
H376        H  0.49936081  0.67378718  0.14552656     0.15400
C377        C  0.50321016  0.72496354  0.08365459     0.37100
C378        C  0.40043999  0.61368547  0.08734946     0.37000
N379        N  0.52311979  0.74842194  0.08438840    -0.43300
N380        N  0.37828215  0.59231060  0.08791549    -0.43300
C381        C  0.47058912  0.71230082  0.44296955     0.00300
C382        C  0.50168849  0.69538037  0.45481912    -0.11600
C383        C  0.51675535  0.67074531  0.42457869     0.02500
C384        C  0.50090969  0.66273651  0.38053625     0.00200
C385        C  0.47075614  0.68117307  0.36787393    -0.11500
C386        C  0.45533220  0.70513173  0.39865543     0.02400
H387        H  0.51385619  0.70086125  0.48845839     0.15400
H388        H  0.45771164  0.67527402  0.33487464     0.15400
C389        C  0.42198976  0.71920950  0.38535245     0.37100
C390        C  0.54797542  0.65363672  0.44065809     0.37000
N391        N  0.39494105  0.72947110  0.87397483    -0.43300
N392        N  0.57284447  0.63985913  0.45396837    -0.43300
C393        C  0.14332971  0.02711721  0.11260873     0.00300
C394        C  0.16480640  0.00043868  0.09567907    -0.11600
C395        C  0.19705312  0.00828275  0.07382539     0.02500
C396        C  0.20909953  0.04347067  0.06932421     0.00200
C397        C  0.18939087  0.06990542  0.09014483    -0.11500
C398        C  0.15685594  0.06215712  0.11172588     0.02400
H399        H  0.15542314  0.97334244  0.09667078     0.15400
H400        H  0.19807421  0.09702572  0.58618109     0.15400
C401        C  0.13770261  0.09094011  0.13123256     0.37100
C402        C  0.21488550  0.98002452  0.05096336     0.37000
N403        N  0.12258116  0.11393602  0.64731374    -0.43300
N404        N  0.22863218  0.95707344  0.03257317    -0.43300
C405        C  0.34908379  0.01385584  0.37726925     0.00300
C406        C  0.34256669  0.99385841  0.41806255    -0.11600
C407        C  0.31925703  0.00539144  0.45284368     0.02500
C408        C  0.30225072  0.03766740  0.44714925     0.00200
C409        C  0.31079819  0.05862132  0.40809456    -0.11500
C410        C  0.33385660  0.04732942  0.37355953     0.02400
H411        H  0.35475786  0.96862062  0.42208365     0.15400
H412        H  0.29822154  0.08365344  0.40363752     0.15400
C413        C  0.34127661  0.07109621  0.33493685     0.37100
C414        C  0.31203156  0.98258254  0.49229673     0.37000
N415        N  0.34715045  0.09013164  0.30401993    -0.43300
N416        N  0.30703091  0.96386938  0.52377990    -0.43300
C417        C  0.29394161  0.04921189  0.05690828     0.00300
C418        C  0.29351854  0.02691573  0.09624646    -0.11600
C419        C  0.32155160  0.02722479  0.12862256     0.02500
C420        C  0.35108680  0.05027982  0.12198187     0.00200
C421        C  0.35050211  0.07369922  0.08383743    -0.11500
C422        C  0.32228606  0.07378570  0.05216361     0.02400
H423        H  0.27180507  0.00837428  0.10097972     0.15400
H424        H  0.37221876  0.09231282  0.07873862     0.15400
C425        C  0.32256739  0.10049531  0.01617135     0.37100
C426        C  0.31972279  0.00252898  0.16710645     0.37000
N427        N  0.32302002  0.12220053  0.48772473    -0.43300
N428        N  0.31810414  0.98275209  0.19798243    -0.43300
C429        C  0.84623116  0.97660997  0.38566195     0.00300
C430        C  0.82612256  0.00492105  0.40080847    -0.11600
C431        C  0.79537485  0.99952703  0.42693278     0.02500
C432        C  0.78325832  0.96515099  0.43744951     0.00200
C433        C  0.80143200  0.93672079  0.41896850    -0.11500
C434        C  0.83263121  0.94205406  0.39315042     0.02400
H435        H  0.83560511  0.03166133  0.39508119     0.15400
H436        H  0.79278642  0.91021128  0.42799701     0.15400
C437        C  0.85045646  0.91152368  0.37634221     0.37100
C438        C  0.77948525  0.02980839  0.44770679     0.37000
N439        N  0.86464632  0.88698467  0.36289584    -0.43300
N440        N  0.76727520  0.05429972  0.96448474    -0.43300
C441        C  0.69100584  0.97460224  0.06057766     0.00300
C442        C  0.68144158  0.95180470  0.09721141    -0.11600
C443        C  0.65801300  0.96177447  0.13201995     0.02500
C444        C  0.64409047  0.99593033  0.13144225     0.00200
C445        C  0.65181552  0.01800561  0.09295638    -0.11500
C446        C  0.67518139  0.00762578  0.05762483     0.02400
H447        H  0.69362059  0.92642846  0.09971932     0.15400
H448        H  0.64060888  0.04385428  0.09130482     0.15400
C449        C  0.68401378  0.03218077  0.02060967     0.37100
C450        C  0.64878545  0.93599002  0.16755802     0.37000
N451        N  0.69052543  0.05219691  0.99106160    -0.43300
N452        N  0.64142437  0.91524150  0.19587984    -0.43300
C453        C  0.69957002  0.96074188  0.45215684     0.00300
C454        C  0.69843958  0.98381234  0.41377164    -0.11600
C455        C  0.67044602  0.98233983  0.38145605     0.02500
C456        C  0.64240280  0.95739523  0.38731247     0.00200
C457        C  0.64439766  0.93345080  0.42479942    -0.11500
C458        C  0.67271838  0.93457532  0.45643310     0.02400
H459        H  0.71890560  0.00376972  0.40968615     0.15400
H460        H  0.62373828  0.91360230  0.42942255     0.15400
C461        C  0.67423580  0.90766850  0.49202554     0.37100
C462        C  0.67058575  0.00791959  0.34398898     0.37000
N463        N  0.67533527  0.88579814  0.52020345    -0.43300
N464        N  0.67079127  0.02840736  0.31392429    -0.43300
C465        C  0.95125406  0.18935883  0.45321955     0.00300
C466        C  0.98283688  0.18321861  0.42984645    -0.11600
C467        C  0.98417917  0.15874722  0.39341626     0.02500
C468        C  0.95338753  0.13962135  0.37998605     0.00200
C469        C  0.92234721  0.14396439  0.40588747    -0.11500
C470        C  0.92098969  0.16904169  0.44184680     0.02400
H471        H  0.00601357  0.19921563  0.43803723     0.15400
H472        H  0.89877925  0.12893792  0.39666020     0.15400
C473        C  0.88802101  0.17464969  0.46546734     0.37100
C474        C  0.01756881  0.15397348  0.37036429     0.37000
N475        N  0.86169830  0.17928443  0.48460485    -0.43300
N476        N  0.04433815  0.15020286  0.35194141    -0.43300
C477        C  0.99621226  0.15543502  0.12209636     0.00300
C478        C  0.02127078  0.17410923  0.09478183    -0.11600
C479        C  0.01093745  0.19970778  0.06223365     0.02500
C480        C  0.97505619  0.20645404  0.05584183     0.00200
C481        C  0.95003552  0.18807467  0.08309610    -0.11500
C482        C  0.96020062  0.16287735  0.11609437     0.02400
H483        H  0.04891419  0.16840939  0.09851218     0.15400
H484        H  0.92238124  0.19306515  0.07779550     0.15400
C485        C  0.93288561  0.14342612  0.14088325     0.37100
C486        C  0.03734021  0.21813688  0.03471674     0.37000
N487        N  0.91072650  0.12794030  0.16036916    -0.43300
N488        N  0.05849975  0.23297323  0.01258774    -0.43300
C489        C  0.97118569  0.28819691  0.06503039     0.00300
C490        C  0.00295261  0.30721262  0.05956721    -0.11600
C491        C  0.00863899  0.33937153  0.08248818     0.02500
C492        C  0.98168566  0.35319353  0.11081904     0.00200
C493        C  0.95160260  0.33199083  0.12013826    -0.11500
C494        C  0.94631236  0.29970716  0.09768784     0.02400
H495        H  0.02200286  0.29836368  0.53437345     0.15400
H496        H  0.93133855  0.34128697  0.14349818     0.15400
C497        C  0.91381290  0.28015871  0.10557216     0.37100
C498        C  0.04113563  0.35854778  0.07315807     0.37000
N499        N  0.88782478  0.26441088  0.11191741    -0.43300
N500        N  0.06727995  0.37376030  0.06572389    -0.43300
C501        C  0.03946520  0.81262110  0.03401126     0.00300
C502        C  0.01712765  0.80527026  0.07197028    -0.11600
C503        C  0.01450891  0.82843760  0.10965753     0.02500
C504        C  0.03486653  0.86025151  0.11008234     0.00200
C505        C  0.05628592  0.86812826  0.07072192    -0.11500
C506        C  0.05890413  0.84448276  0.03314140     0.02400
H507        H  0.00306834  0.78014214  0.07338640     0.15400
H508        H  0.07174001  0.89240702  0.06966000     0.15400
C509        C  0.08289623  0.85254862  0.99510326     0.37100
C510        C  0.99137533  0.81775738  0.14764578     0.37000
N511        N  0.10162612  0.85906542  0.46418987    -0.43300
N512        N  0.97284176  0.80891754  0.17793498    -0.43300
C513        C  0.01648870  0.79339592  0.42991719     0.00300
C514        C  0.03483116  0.80169798  0.38845332    -0.11600
C515        C  0.02226384  0.82640175  0.35635591     0.02500
C516        C  0.99037008  0.84372001  0.36543563     0.00200
C517        C  0.97117411  0.83396230  0.40604916    -0.11500
C518        C  0.98383245  0.80894296  0.43789762     0.02400
H519        H  0.06002248  0.78986920  0.38222366     0.15400
H520        H  0.94646393  0.84640102  0.41348483     0.15400
C521        C  0.96267923  0.79927648  0.47812112     0.37100
C522        C  0.04412113  0.83497517  0.31622501     0.37000
N523        N  0.94525823  0.79125286  0.00995302    -0.43300
N524        N  0.06174703  0.84180914  0.28416207    -0.43300
C525        C  0.03371182  0.71294808  0.42171771     0.00300
C526        C  0.00206050  0.69444786  0.43089573    -0.11600
C527        C  0.99602698  0.66052823  0.41283248     0.02500
C528        C  0.02231040  0.64463746  0.38542125     0.00200
C529        C  0.05227726  0.66488008  0.37261347    -0.11500
C530        C  0.05802302  0.69867723  0.39032785     0.02400
H531        H  0.98345945  0.70518449  0.45557445     0.15400
H532        H  0.07200800  0.65385934  0.34984679     0.15400
C533        C  0.09025256  0.71747400  0.37836694     0.37100
C534        C  0.96396400  0.64190274  0.42596618     0.37000
N535        N  0.11602886  0.73262215  0.86887940    -0.43300
N536        N  0.93820669  0.62703876  0.43641509    -0.43300
N537        N  0.03300354  0.77130882  0.96455441    -0.03000
C538        C  0.04611395  0.73902765  0.95659783    -0.00400
C539        C  0.06946123  0.72996859  0.49123661    -0.23300
C540        C  0.07129351  0.75752570  0.52176959    -0.23500
C541        C  0.04906353  0.78255718  0.50460552    -0.00500
H542        H  0.08245306  0.70518710  0.49504783     0.13200
H543        H  0.08586824  0.75855751  0.55438364     0.13300
N544        N  0.96337087  0.23084567  0.52086053    -0.03000
C545        C  0.95940516  0.26586410  0.52583993    -0.00400
C546        C  0.94284766  0.27978708  0.98708984    -0.23300
C547        C  0.93591291  0.25238564  0.95720749    -0.23500
C548        C  0.94844923  0.22273161  0.97874275    -0.00500
H549        H  0.93691189  0.30705773  0.98112728     0.13200
H550        H  0.92424504  0.25404871  0.92265235     0.13300
N551        N  0.72738059  0.96411748  0.98689527    -0.03000
C552        C  0.76241614  0.95916417  0.98053100    -0.00400
C553        C  0.77953236  0.95738178  0.52316150    -0.23300
C554        C  0.75475457  0.96183254  0.55715245    -0.23500
C555        C  0.72321675  0.96626595  0.53426135    -0.00500
H556        H  0.80758115  0.95560241  0.52872421     0.13200
H557        H  0.75943474  0.96329991  0.59459310     0.13300
N558        N  0.26614736  0.04685465  0.52196360    -0.03000
C559        C  0.23139241  0.05346431  0.52866559    -0.00400
C560        C  0.21503638  0.05952317  0.98619470    -0.23300
C561        C  0.23973296  0.05566411  0.95201612    -0.23500
C562        C  0.27063436  0.04737272  0.97440086    -0.00500
H563        H  0.18722087  0.06313351  0.98051126     0.13200
H564        H  0.23515243  0.05677081  0.91453812     0.13300
N565        N  0.45353328  0.73429195  0.97731162    -0.03000
C566        C  0.44206684  0.76757847  0.97162822    -0.00400
C567        C  0.42441814  0.77857638  0.51119759    -0.23300
C568        C  0.42485704  0.75155518  0.54259679    -0.23500
C569        C  0.44279533  0.72493064  0.52133557    -0.00500
H570        H  0.41393972  0.80429668  0.51741553     0.13200
H571        H  0.41459313  0.75176499  0.57805974     0.13300
N572        N  0.54069399  0.27559472  0.53680418    -0.03000
C573        C  0.55174100  0.24242095  0.54417144    -0.00400
C574        C  0.57258028  0.23159193  0.00766279    -0.23300
C575        C  0.57491220  0.25890065  0.97657496    -0.23500
C576        C  0.55532229  0.28554403  0.99513175    -0.00500
H577        H  0.58329689  0.20579898  0.00295202     0.13200
H578        H  0.58780505  0.25871534  0.94267622     0.13300
N579        N  0.23354726  0.46121668  0.52678897    -0.03000
C580        C  0.26810380  0.45342178  0.53047800    -0.00400
C581        C  0.28280715  0.44913286  0.98653781    -0.23300
C582        C  0.25675665  0.45487218  0.95453231    -0.23500
C583        C  0.22701403  0.46232084  0.98000872    -0.00500
H584        H  0.31022644  0.44500395  0.97859579     0.13200
H585        H  0.25944213  0.45486879  0.91669162     0.13300
N586        N  0.77179930  0.54366933  0.97841829    -0.03000
C587        C  0.73835788  0.55525678  0.97553856    -0.00400
C588        C  0.72578897  0.56355137  0.51954747    -0.23300
C589        C  0.75210753  0.55685763  0.55075589    -0.23500
C590        C  0.77990050  0.54476760  0.52473921    -0.00500
H591        H  0.69928662  0.57088298  0.52838079     0.13200
H592        H  0.75068183  0.55911207  0.58858562     0.13300
O593        O  0.47626802  0.51630199  0.67750322    -0.87900
C594        C  0.45121678  0.56036119  0.80295895     0.88100
Mg595      Mg  0.47206233  0.46119615  0.66349473     1.58100
O596        O  0.54135439  0.55894009  0.77921742    -0.87600
O597        O  0.51534943  0.55992413  0.67524203    -0.75000
C598        C  0.54347673  0.39298013  0.85386409     0.93200
O599        O  0.41838597  0.49089413  0.75235424    -0.74800
O600        O  0.52556187  0.38408063  0.81787915    -0.82300
Mg601      Mg  0.43141354  0.53997958  0.70802186     1.58000
C602        C  0.61248231  0.52525627  0.87290674     0.93100
O603        O  0.44137488  0.58848293  0.66026720    -0.80500
H604        H  0.58173921  0.56990322  0.73611222    -0.05900
C605        C  0.49965797  0.47992850  0.85805716     0.88000
O606        O  0.53138642  0.45646687  0.67672844    -0.75000
O607        O  0.46407584  0.56033677  0.76301008    -0.87800
O608        O  0.58936047  0.54865658  0.86791415    -0.80600
C609        C  0.51192291  0.63260395  0.85026985     0.93200
C610        C  0.45577399  0.61899941  0.66277194     0.93100
Mg611      Mg  0.56864143  0.47161243  0.80811914     1.58000
O612        O  0.55811907  0.42337054  0.85669068    -0.80500
O613        O  0.58194797  0.52057177  0.76313438    -0.74800
O614        O  0.49971837  0.62927958  0.80848472    -0.80600
O615        O  0.39385157  0.51739080  0.65414775    -0.82300
O616        O  0.50113640  0.38304048  0.70836705    -0.80700
C617        C  0.56892139  0.55089969  0.75905821     0.87500
O618        O  0.53627168  0.45165388  0.75313944    -0.87800
O619        O  0.52422680  0.49597017  0.83807775    -0.87900
O620        O  0.48438940  0.45301138  0.84002483    -0.75000
Mg621      Mg  0.50758616  0.59296459  0.74240367     1.58000
O622        O  0.53134325  0.60928501  0.86791767    -0.82300
H623        H  0.50932444  0.52369718  0.62347762    -0.06100
O624        O  0.45933520  0.45308700  0.73571757    -0.87600
H625        H  0.41871005  0.44118939  0.77797684    -0.05900
H626        H  0.57772075  0.44890447  0.71012599    -0.06100
C627        C  0.43152272  0.46059918  0.75563389     0.87500
C628        C  0.50031085  0.53289396  0.65718559     0.88100
C629        C  0.54963110  0.45181760  0.71349180     0.88100
H630        H  0.49037768  0.48953796  0.89141901    -0.06000
O631        O  0.46999808  0.55617119  0.83938867    -0.75100
Mg632      Mg  0.49257918  0.41944078  0.77344720     1.58000
H633        H  0.42316782  0.56324637  0.80693670    -0.06100
C634        C  0.38884140  0.48567239  0.64143356     0.93100
O635        O  0.47136376  0.40264844  0.64684945    -0.82300
C636        C  0.49031330  0.37953020  0.66604047     0.93200
O637        O  0.47392952  0.62834007  0.69840685    -0.82300
Mg638      Mg  0.52956925  0.55100865  0.85160475     1.58200
O639        O  0.41290488  0.46320904  0.64576943    -0.80600
O640        O  0.60598769  0.49348424  0.86183420    -0.82300
O641        O  0.51713567  0.02173913  0.67529828    -0.87900
C642        C  0.56310126  0.03505434  0.80408495     0.88100
Mg643      Mg  0.46737831  0.04225697  0.65611303     1.58100
O644        O  0.53202096  0.94924563  0.78210000    -0.87600
O645        O  0.54522913  0.97193745  0.67817547    -0.75000
C646        C  0.37264384  0.00060316  0.83984649     0.93200
O647        O  0.51072521  0.08565148  0.74656447    -0.74800
O648        O  0.36973524  0.01293733  0.79878672    -0.82300
Mg649      Mg  0.55419945  0.05716131  0.70643587     1.58000
C650        C  0.47223532  0.89515481  0.87374842     0.93100
O651        O  0.59714073  0.03025240  0.66155723    -0.80500
H652        H  0.53027214  0.90623940  0.74187614    -0.05900
C653        C  0.46871962  0.01448743  0.85196767     0.88000
O654        O  0.44214544  0.98742208  0.66909510    -0.75000
O655        O  0.55927320  0.02190062  0.76467676    -0.87800
O656        O  0.50295969  0.90899528  0.86952325    -0.80600
C657        C  0.61000816  0.95720381  0.85729952     0.93200
C658        C  0.62072967  0.00785218  0.66971810     0.93100
Mg659      Mg  0.43928774  0.95097138  0.80440001     1.58000
O660        O  0.39659966  0.97887598  0.84934645    -0.80500
O661        O  0.48231739  0.92149397  0.76437114    -0.74800
O662        O  0.61155422  0.96906878  0.81532101    -0.80600
O663        O  0.54841534  0.09781245  0.64968956    -0.82300
O664        O  0.38169609  0.03759762  0.69399245    -0.80700
C665        C  0.51573607  0.92479426  0.76241291     0.87500
O666        O  0.43435912  0.98528472  0.74523774    -0.87800
O667        O  0.47686767  0.98610274  0.83430994    -0.87900
O668        O  0.44826579  0.03557759  0.83126593    -0.75000
Mg669      Mg  0.57675359  0.97124427  0.74784559     1.58000
O670        O  0.58090122  0.94609862  0.87479713    -0.82300
H671        H  0.51460735  0.98645959  0.62340637    -0.06100
O672        O  0.46128028  0.05794734  0.72742195    -0.87600
H673        H  0.46250417  0.10056021  0.76835917    -0.05900
H674        H  0.41914551  0.94585138  0.70300498    -0.06100
C675        C  0.47730584  0.08227793  0.74772345     0.87500
C676        C  0.52524735  0.99341542  0.65741439     0.88100
C677        C  0.43109829  0.97178762  0.70596115     0.88100
H678        H  0.47952515  0.02173721  0.88577627    -0.06000
O679        O  0.55224539  0.01927424  0.84094245    -0.75100
Mg680      Mg  0.41654288  0.03578686  0.76145221     1.58000
H681        H  0.57542786  0.06081338  0.80718323    -0.06100
C682        C  0.52075652  0.11296950  0.63616433     0.93100
O683        O  0.41278941  0.06009452  0.63462445    -0.82300
C684        C  0.38348882  0.04944409  0.65203834     0.93200
O685        O  0.62345962  0.99377487  0.70985208    -0.82300
Mg686      Mg  0.52644088  0.96467278  0.85348092     1.58200
O687        O  0.49051490  0.09783874  0.63918450    -0.80600
O688        O  0.44506741  0.91193405  0.86229981    -0.82300
O689        O  0.01793039  0.98954244  0.66350636    -0.87900
C690        C  0.04059553  0.94491069  0.78925010     0.88100
Mg691      Mg  0.02447419  0.04449815  0.65072626     1.58100
O692        O  0.95033785  0.94951585  0.76753122    -0.87600
O693        O  0.97581383  0.94872815  0.66277380    -0.75000
C694        C  0.95377051  0.11486730  0.83984315     0.93200
O695        O  0.07602118  0.01245726  0.73898311    -0.74800
O696        O  0.97171638  0.12329759  0.80365235    -0.82300
Mg697      Mg  0.06140468  0.96391157  0.69435737     1.58000
C698        C  0.88113277  0.98464037  0.86353480     0.93100
O699        O  0.04944811  0.91553246  0.64652334    -0.80500
H700        H  0.90886746  0.93854478  0.72649829    -0.05900
C701        C  0.99437794  0.02696281  0.84588782     0.88000
O702        O  0.96496480  0.05056752  0.66359791    -0.75000
O703        O  0.02759699  0.94528511  0.74940986    -0.87800
O704        O  0.90369543  0.96065919  0.85861000    -0.80600
C705        C  0.97898537  0.87443334  0.83676355     0.93200
C706        C  0.03301305  0.88595677  0.64962040     0.93100
Mg707      Mg  0.92552316  0.03685207  0.79576618     1.58000
O708        O  0.93764301  0.08521099  0.84312847    -0.80500
O709        O  0.91007671  0.98822463  0.75205361    -0.74800
O710        O  0.98969077  0.87818424  0.79440093    -0.80600
O711        O  0.10056571  0.98521981  0.64080567    -0.82300
O712        O  0.99505888  0.12221019  0.69391967    -0.80700
C713        C  0.92245758  0.95764695  0.74835981     0.87500
O714        O  0.95880399  0.05518541  0.74006604    -0.87800
O715        O  0.96938292  0.01145441  0.82624303    -0.87900
O716        O  0.01052465  0.05323040  0.82723597    -0.75000
Mg717      Mg  0.98250138  0.91491210  0.72947272     1.58000
O718        O  0.96039161  0.89767183  0.85625836    -0.82300
H719        H  0.98370559  0.98440938  0.61052072    -0.06100
O720        O  0.03590265  0.05130756  0.72312733    -0.87600
H721        H  0.07669670  0.06185750  0.76553407    -0.05900
H722        H  0.91806326  0.05771228  0.69592285    -0.06100
C723        C  0.06347246  0.04296986  0.74296982     0.87500
C724        C  0.99254923  0.97457513  0.64401440     0.88100
C725        C  0.94610180  0.05489346  0.70001327     0.88100
H726        H  0.00328309  0.01739592  0.87949145    -0.06000
O727        O  0.02219252  0.94975411  0.82589220    -0.75100
Mg728      Mg  0.00336255  0.08637721  0.75987454     1.58000
H729        H  0.06854590  0.94121608  0.79293279    -0.06100
C730        C  0.10742716  0.01720967  0.63049108     0.93100
O731        O  0.02778813  0.10315144  0.63483699    -0.82300
C732        C  0.00749994  0.12573958  0.65236932     0.93200
O733        O  0.01406436  0.87841930  0.68520007    -0.82300
Mg734      Mg  0.96305827  0.95641734  0.83990526     1.58200
O735        O  0.08424166  0.04061667  0.63505432    -0.80600
O736        O  0.88779421  0.01604440  0.85041608    -0.82300
O737        O  0.98327650  0.48031149  0.66953672    -0.87900
C738        C  0.93341718  0.46564087  0.79452883     0.88100
Mg739      Mg  0.03425786  0.46074659  0.65505843     1.58100
O740        O  0.96548723  0.55102307  0.77461516    -0.87600
O741        O  0.95520285  0.53008390  0.66980708    -0.75000
C742        C  0.12290322  0.50216060  0.84752248     0.93200
O743        O  0.98729647  0.41594247  0.74057881    -0.74800
O744        O  0.12541330  0.48398638  0.81033242    -0.82300
Mg745      Mg  0.94518391  0.44405142  0.69746776     1.58000
C746        C  0.02014277  0.60743078  0.86958347     0.93100
O747        O  0.90300341  0.47036837  0.64999960    -0.80500
H748        H  0.96861371  0.59371030  0.73363018    -0.05900
C749        C  0.02579139  0.48705393  0.85106987     0.88000
O750        O  0.05842389  0.51532341  0.67117345    -0.75000
O751        O  0.93732715  0.47890512  0.75504478    -0.87800
O752        O  0.99032894  0.59206205  0.86361132    -0.80600
C753        C  0.88508081  0.54339292  0.84481038     0.93200
C754        C  0.87949194  0.49332503  0.65562604     0.93100
Mg755      Mg  0.05747872  0.55150146  0.80462181     1.58000
O756        O  0.09969617  0.52556471  0.85195731    -0.80500
O757        O  0.01554557  0.57946386  0.76067538    -0.74800
O758        O  0.88409155  0.53082963  0.80322790    -0.80600
O759        O  0.95434468  0.40370032  0.64132009    -0.82300
O760        O  0.11868412  0.46478398  0.69992296    -0.80700
C761        C  0.98236333  0.57556654  0.75584291     0.87500
O762        O  0.06546716  0.51658164  0.74767662    -0.87800
O763        O  0.01909272  0.51563372  0.83261547    -0.87900
O764        O  0.04598518  0.46512010  0.83172679    -0.75000
Mg765      Mg  0.92140283  0.53008098  0.73744046     1.58000
O766        O  0.91359679  0.55500387  0.86295274    -0.82300
H767        H  0.98761243  0.51521846  0.61712969    -0.06100
O768        O  0.03716592  0.44473309  0.72647126    -0.87600
H769        H  0.03452677  0.40143962  0.76631489    -0.05900
H770        H  0.08101609  0.55640858  0.70611776    -0.06100
C771        C  0.02052046  0.41983112  0.74478150     0.87500
C772        C  0.97578105  0.50847058  0.65058725     0.88100
C773        C  0.06917399  0.53038127  0.70851077     0.88100
H774        H  0.01345523  0.48016448  0.88415557    -0.06000
O775        O  0.94366480  0.48143206  0.83163435    -0.75100
Mg776      Mg  0.08072035  0.46502326  0.76499001     1.58000
H777        H  0.92158347  0.43964229  0.79749458    -0.06100
C778        C  0.98311404  0.38949556  0.63016193     0.93100
O779        O  0.08974211  0.44361996  0.63766201    -0.82300
C780        C  0.11809178  0.45426145  0.65731989     0.93200
O781        O  0.87618206  0.50965802  0.69418317    -0.82300
Mg782      Mg  0.96840084  0.53628796  0.84639871     1.58200
O783        O  0.01268099  0.40540634  0.63592970    -0.80600
O784        O  0.04868032  0.59208893  0.86047836    -0.82300
C785        C  0.81214167  0.53204656  0.54719437     0.00300
C786        C  0.81722752  0.49569757  0.55042146    -0.11600
C787        C  0.84017824  0.48199405  0.58422206     0.02500
C788        C  0.85785173  0.50499077  0.61556925     0.00200
C789        C  0.85465106  0.54136945  0.60952865    -0.11500
C790        C  0.83222107  0.55494354  0.57571646     0.02400
H791        H  0.80135552  0.47793260  0.52902800     0.15400
H792        H  0.86910805  0.55937475  0.63230187     0.15400
C793        C  0.82879306  0.59252937  0.57245499     0.37100
C794        C  0.84292193  0.44444564  0.58850481     0.37000
N795        N  0.82603301  0.62253764  0.06972992    -0.43300
N796        N  0.84505962  0.41431496  0.59191202    -0.43300
C797        C  0.79725746  0.54360040  0.94073889     0.00300
C798        C  0.80893435  0.51184813  0.92240303    -0.11600
C799        C  0.83623937  0.51140670  0.88906048     0.02500
C800        C  0.85280666  0.54317828  0.87419988     0.00200
C801        C  0.84094640  0.57492433  0.89243874    -0.11500
C802        C  0.81323350  0.57533738  0.92501872     0.02400
H803        H  0.79749001  0.48736607  0.93520427     0.15400
H804        H  0.85384820  0.59940510  0.88191413     0.15400
C805        C  0.80251193  0.60856516  0.94361256     0.37100
C806        C  0.84842021  0.47791483  0.87310372     0.37000
N807        N  0.79388717  0.63521349  0.95854686    -0.43300
N808        N  0.85817340  0.45099340  0.86056395    -0.43300
C809        C  0.71336721  0.54804565  0.93698682     0.00300
C810        C  0.69333827  0.57578752  0.92008388    -0.11600
C811        C  0.66104657  0.56937372  0.89742830     0.02500
C812        C  0.64800039  0.53442667  0.89217828     0.00200
C813        C  0.66966417  0.50681462  0.90591741    -0.11500
C814        C  0.70181338  0.51327479  0.92831323     0.02400
H815        H  0.70193275  0.60259903  0.92725226     0.15400
H816        H  0.66070665  0.47978989  0.90155158     0.15400
C817        C  0.72016887  0.48365436  0.94708351     0.37100
C818        C  0.64192975  0.59920245  0.88081826     0.37000
N819        N  0.73441886  0.45973189  0.96238525    -0.43300
N820        N  0.62681965  0.62319292  0.86732553    -0.43300
C821        C  0.19391448  0.47178060  0.95687091     0.00300
C822        C  0.18634925  0.50744653  0.95130010    -0.11600
C823        C  0.16220155  0.51827221  0.91716974     0.02500
C824        C  0.14594386  0.49309505  0.88747981     0.00200
C825        C  0.15199207  0.45731676  0.89542158    -0.11500
C826        C  0.17560834  0.44658289  0.92975591     0.02400
H827        H  0.20112878  0.52700554  0.97124657     0.15400
H828        H  0.13881954  0.43759758  0.87384891     0.15400
C829        C  0.18225842  0.40962095  0.93489623     0.37100
C830        C  0.15675161  0.55530931  0.91087574     0.37000
N831        N  0.18776089  0.38006919  0.93920370    -0.43300
N832        N  0.15239316  0.58501653  0.90581834    -0.43300
C833        C  0.20739818  0.46010945  0.56369434     0.00300
C834        C  0.18884987  0.49029818  0.57461925    -0.11600
C835        C  0.16086983  0.48903444  0.60682842     0.02500
C836        C  0.15051837  0.45692130  0.62830665     0.00200
C837        C  0.16925281  0.42669498  0.61772230    -0.11500
C838        C  0.19762764  0.42814107  0.58594624     0.02400
H839        H  0.19574310  0.51475698  0.55711893     0.15400
H840        H  0.16115898  0.40180642  0.63335770     0.15400
C841        C  0.21509140  0.39613402  0.57444767     0.37100
C842        C  0.14216050  0.52083253  0.61556023     0.37000
N843        N  0.22878637  0.37027201  0.06468501    -0.43300
N844        N  0.12739262  0.54652760  0.62214443    -0.43300
C845        C  0.35407227  0.47514710  0.62079749     0.00300
C846        C  0.32994416  0.50155600  0.61075562    -0.11600
C847        C  0.29877910  0.49410030  0.58633194     0.02500
C848        C  0.29093262  0.45953440  0.57163206     0.00200
C849        C  0.31315765  0.43256326  0.58528383    -0.11500
C850        C  0.34433491  0.43988535  0.61003531     0.02400
H851        H  0.33620102  0.52863433  0.61966406     0.15400
H852        H  0.30733041  0.40595482  0.57367619     0.15400
C853        C  0.36596418  0.41067670  0.62244926     0.37100
C854        C  0.27762709  0.52307093  0.07167220     0.37000
N855        N  0.38313030  0.38716625  0.63247315    -0.43300
N856        N  0.26101650  0.54656006  0.06001932    -0.43300
C857        C  0.53833877  0.21701032  0.57935349     0.00300
C858        C  0.50672355  0.19878943  0.56927007    -0.11600
C859        C  0.49963042  0.16524919  0.58812957     0.02500
C860        C  0.52447263  0.14964046  0.61816841     0.00200
C861        C  0.55455838  0.16956318  0.63133978    -0.11500
C862        C  0.56170972  0.20272086  0.61199714     0.02400
H863        H  0.48912475  0.20931936  0.54310822     0.15400
H864        H  0.57344364  0.15866297  0.65547998     0.15400
C865        C  0.59457997  0.22053653  0.12327163     0.37100
C866        C  0.46830870  0.14648468  0.57263883     0.37000
N867        N  0.62095374  0.23479825  0.13213273    -0.43300
N868        N  0.44326519  0.13144105  0.56000198    -0.43300
C869        C  0.54651892  0.31627363  0.96622147     0.00300
C870        C  0.56698456  0.34722912  0.96997212    -0.11600
C871        C  0.56673228  0.37281637  0.93424177     0.02500
C872        C  0.54544024  0.36749220  0.89376376     0.00200
C873        C  0.52393615  0.33693268  0.89160631    -0.11500
C874        C  0.52465903  0.31142481  0.92675306     0.02400
H875        H  0.58477559  0.35043783  0.99948612     0.15400
H876        H  0.50697167  0.33222476  0.86158246     0.15400
C877        C  0.50454405  0.27916960  0.91977991     0.37100
C878        C  0.58992215  0.40313287  0.93934021     0.37000
N879        N  0.48860626  0.25326745  0.91407195    -0.43300
N880        N  0.60868896  0.42728809  0.94364478    -0.43300
C881        C  0.52594297  0.29853384  0.57169873     0.00300
C882        C  0.54650602  0.30861911  0.61051132    -0.11600
C883        C  0.53482850  0.33353832  0.64294022     0.02500
C884        C  0.50163428  0.34908024  0.63693801     0.00200
C885        C  0.48054801  0.33778783  0.59891409    -0.11500
C886        C  0.49231067  0.31266190  0.56674796     0.02400
H887        H  0.57245705  0.29787295  0.61439746     0.15400
H888        H  0.45490800  0.34900449  0.59385872     0.15400
C889        C  0.46914761  0.30136190  0.52947760     0.37100
C890        C  0.55862859  0.34431464  0.67999055     0.37000
N891        N  0.44994831  0.29235121  0.50015765    -0.43300
N892        N  0.57774616  0.35302098  0.70959201    -0.43300
C893        C  0.45103553  0.79270811  0.93370671     0.00300
C894        C  0.48614383  0.80424428  0.92834980    -0.11600
C895        C  0.49436168  0.83698451  0.90756063     0.02500
C896        C  0.46689416  0.85855887  0.89164355     0.00200
C897        C  0.43222361  0.84481150  0.89278374    -0.11500
C898        C  0.42413760  0.81266893  0.91388509     0.02400
H899        H  0.50690436  0.78915121  0.94403810     0.15400
H900        H  0.41070283  0.85996099  0.87925327     0.15400
C901        C  0.38747671  0.80230366  0.91851051     0.37100
C902        C  0.53088424  0.84813724  0.90526225     0.37000
N903        N  0.35808637  0.79421359  0.92238631    -0.43300
N904        N  0.56020841  0.85692744  0.90343960    -0.43300
C905        C  0.45175155  0.69333059  0.54815825     0.00300
C906        C  0.42723682  0.66530072  0.54978116    -0.11600
C907        C  0.42782395  0.64053458  0.58636658     0.02500
C908        C  0.45345948  0.64379779  0.62236526     0.00200
C909        C  0.47893637  0.67112884  0.61902529    -0.11500
C910        C  0.47810524  0.69580391  0.58274788     0.02400
H911        H  0.40611949  0.66415272  0.52420234     0.15400
H912        H  0.49930157  0.67383904  0.64548759     0.15400
C913        C  0.50309867  0.72500077  0.58358724     0.37100
C914        C  0.40039337  0.61366656  0.58739802     0.37000
N915        N  0.52299208  0.74847319  0.58429816    -0.43300
N916        N  0.37824424  0.59228293  0.58799164    -0.43300
C917        C  0.47062408  0.71230078  0.94300098     0.00300
C918        C  0.50176463  0.69543015  0.95478373    -0.11600
C919        C  0.51681891  0.67080126  0.92452315     0.02500
C920        C  0.50091115  0.66274291  0.88053654     0.00200
C921        C  0.47070655  0.68112450  0.86794302    -0.11500
C922        C  0.45530149  0.70508274  0.89874299     0.02400
H923        H  0.51397692  0.70094937  0.98838483     0.15400
H924        H  0.45761401  0.67518280  0.83499041     0.15400
C925        C  0.42191824  0.71911531  0.88553217     0.37100
C926        C  0.54809997  0.65375768  0.94051611     0.37000
N927        N  0.39504685  0.72959646  0.37370517    -0.43300
N928        N  0.57302021  0.64003394  0.95375661    -0.43300
C929        C  0.14337335  0.02704414  0.61268639     0.00300
C930        C  0.16481920  0.00038046  0.59564554    -0.11600
C931        C  0.19705757  0.00824291  0.57377922     0.02500
C932        C  0.20912025  0.04343229  0.56936901     0.00200
C933        C  0.18944560  0.06984336  0.59030093    -0.11500
C934        C  0.15692493  0.06207576  0.61190835     0.02400
H935        H  0.15541592  0.97328925  0.59656101     0.15400
H936        H  0.19800255  0.09708600  0.08594371     0.15400
C937        C  0.13781520  0.09083034  0.63156933     0.37100
C938        C  0.21486447  0.98001311  0.55081689     0.37000
N939        N  0.12243319  0.11407030  0.14684787    -0.43300
N940        N  0.22859019  0.95708615  0.53234315    -0.43300
C941        C  0.34910014  0.01382576  0.87726356     0.00300
C942        C  0.34259177  0.99383776  0.91806832    -0.11600
C943        C  0.31927816  0.00537245  0.95284426     0.02500
C944        C  0.30226129  0.03764039  0.94713334     0.00200
C945        C  0.31080049  0.05858605  0.90806812    -0.11500
C946        C  0.33386033  0.04729235  0.87353717     0.02400
H947        H  0.35479194  0.96860559  0.92210208     0.15400
H948        H  0.29821242  0.08361094  0.90359701     0.15400
C949        C  0.34126455  0.07104900  0.83489841     0.37100
C950        C  0.31205772  0.98257379  0.99230943     0.37000
N951        N  0.34712478  0.09007599  0.80396803    -0.43300
N952        N  0.30705915  0.96387088  0.02380391    -0.43300
C953        C  0.29395423  0.04919505  0.55693251     0.00300
C954        C  0.29354239  0.02687346  0.59624424    -0.11600
C955        C  0.32157935  0.02717266  0.62861326     0.02500
C956        C  0.35110357  0.05024460  0.62199124     0.00200
C957        C  0.35050761  0.07368650  0.58387333    -0.11500
C958        C  0.32228888  0.07378165  0.55220667     0.02400
H959        H  0.27183471  0.00832110  0.60095856     0.15400
H960        H  0.37221688  0.09231154  0.57879129     0.15400
C961        C  0.32255685  0.10051208  0.51624230     0.37100
C962        C  0.31976785  0.00245025  0.66706763     0.37000
N963        N  0.32304180  0.12216741  0.98763143    -0.43300
N964        N  0.31816373  0.98265185  0.69791990    -0.43300
C965        C  0.84622473  0.97661067  0.88565878     0.00300
C966        C  0.82614878  0.00492748  0.90086375    -0.11600
C967        C  0.79540067  0.99953683  0.92698762     0.02500
C968        C  0.78326112  0.96516116  0.93746134     0.00200
C969        C  0.80139971  0.93673044  0.91891937    -0.11500
C970        C  0.83259074  0.94206062  0.89308287     0.02400
H971        H  0.83565625  0.03166447  0.89517797     0.15400
H972        H  0.79272990  0.91021978  0.92790235     0.15400
C973        C  0.85036583  0.91153377  0.87616589     0.37100
C974        C  0.77952817  0.02981462  0.94779572     0.37000
N975        N  0.86451433  0.88699918  0.86262464    -0.43300
N976        N  0.76721946  0.05429692  0.46436905    -0.43300
C977        C  0.69100330  0.97460921  0.56057400     0.00300
C978        C  0.68145723  0.95181941  0.59722484    -0.11600
C979        C  0.65804086  0.96179345  0.63204556     0.02500
C980        C  0.64410565  0.99594362  0.63145663     0.00200
C981        C  0.65181150  0.01800996  0.59295496    -0.11500
C982        C  0.67516980  0.00762786  0.55761578     0.02400
H983        H  0.69364434  0.92644746  0.59973817     0.15400
H984        H  0.64059578  0.04385432  0.59129616     0.15400
C985        C  0.68398633  0.03217702  0.52058755     0.37100
C986        C  0.64884164  0.93601993  0.66760996     0.37000
N987        N  0.69048546  0.05218893  0.49102988    -0.43300
N988        N  0.64150399  0.91528116  0.69595454    -0.43300
C989        C  0.69958029  0.96074002  0.95216577     0.00300
C990        C  0.69845549  0.98381357  0.91378385    -0.11600
C991        C  0.67046506  0.98234381  0.88146363     0.02500
C992        C  0.64241902  0.95740163  0.88731667     0.00200
C993        C  0.64441031  0.93345338  0.92479917    -0.11500
C994        C  0.67272898  0.93457305  0.95643429     0.02400
H995        H  0.71892489  0.00376934  0.90970467     0.15400
H996        H  0.62375018  0.91360492  0.92941687     0.15400
C997        C  0.67424574  0.90765978  0.99201808     0.37100
C998        C  0.67061325  0.00792057  0.84399276     0.37000
N999        N  0.67534456  0.88578344  0.02018771    -0.43300
N1000       N  0.67082678  0.02840525  0.81392412    -0.43300
C1001       C  0.95112604  0.18937168  0.95315527     0.00300
C1002       C  0.98277139  0.18309194  0.93000989    -0.11600
C1003       C  0.98414980  0.15860651  0.89360049     0.02500
C1004       C  0.95333606  0.13959975  0.87997931     0.00200
C1005       C  0.92221818  0.14407566  0.90566029    -0.11500
C1006       C  0.92082426  0.16917482  0.94158646     0.02400
H1007       H  0.00598084  0.19899448  0.93835348     0.15400
H1008       H  0.89862852  0.12913980  0.89627931     0.15400
C1009       C  0.88779095  0.17492483  0.96497354     0.37100
C1010       C  0.01759668  0.15369567  0.87075966     0.37000
N1011       N  0.86141546  0.17967312  0.98392241    -0.43300
N1012       N  0.04441129  0.14981564  0.85250403    -0.43300
C1013       C  0.99629304  0.15541216  0.62216400     0.00300
C1014       C  0.02132907  0.17398552  0.59469170    -0.11600
C1015       C  0.01098373  0.19958996  0.56215847     0.02500
C1016       C  0.97511007  0.20644806  0.55594355     0.00200
C1017       C  0.95011217  0.18817863  0.58336238    -0.11500
C1018       C  0.96029057  0.16297120  0.61634116     0.02400
H1019       H  0.04896330  0.16820425  0.59828980     0.15400
H1020       H  0.92246131  0.19325504  0.57819731     0.15400
C1021       C  0.93298595  0.14362600  0.64129474     0.37100
C1022       C  0.03736257  0.21793054  0.53449932     0.37000
N1023       N  0.91084034  0.12822122  0.66091882    -0.43300
N1024       N  0.05850042  0.23270201  0.51225914    -0.43300
C1025       C  0.97108181  0.28818677  0.56517618     0.00300
C1026       C  0.00290699  0.30712114  0.55981794    -0.11600
C1027       C  0.00860489  0.33930738  0.58267531     0.02500
C1028       C  0.98161199  0.35323383  0.61084471     0.00200
C1029       C  0.95145874  0.33210892  0.62007427    -0.11500
C1030       C  0.94615091  0.29980669  0.59768046     0.02400
H1031       H  0.02200064  0.29854046  0.03400325     0.15400
H1032       H  0.93115594  0.34147888  0.64331707     0.15400
C1033       C  0.91358354  0.28034892  0.60545707     0.37100
C1034       C  0.04116883  0.35839520  0.57345130     0.37000
N1035       N  0.88753966  0.26467548  0.61171470    -0.43300
N1036       N  0.06736681  0.37353637  0.56610108    -0.43300
C1037       C  0.03938011  0.81257245  0.53403537     0.00300
C1038       C  0.01717313  0.80515424  0.57211041    -0.11600
C1039       C  0.01458109  0.82831696  0.60980670     0.02500
C1040       C  0.03483524  0.86019591  0.61012574     0.00200
C1041       C  0.05611345  0.86813952  0.57065035    -0.11500
C1042       C  0.05869993  0.84450173  0.53305407     0.02400
H1043       H  0.00319516  0.77998416  0.57359625     0.15400
H1044       H  0.07147715  0.89247177  0.56950068     0.15400
C1045       C  0.08253918  0.85265152  0.49487627     0.37100
C1046       C  0.99158931  0.81756430  0.64791261     0.37000
N1047       N  0.10210865  0.85889461  0.96453241    -0.43300
N1048       N  0.97316712  0.80866833  0.67829381    -0.43300
C1049       C  0.01651968  0.79336570  0.92996676     0.00300
C1050       C  0.03490927  0.80173980  0.88856585    -0.11600
C1051       C  0.02234109  0.82644822  0.85647557     0.02500
C1052       C  0.99039699  0.84369381  0.86549629     0.00200
C1053       C  0.97116116  0.83386857  0.90604829    -0.11500
C1054       C  0.98382231  0.80884519  0.93789066     0.02400
H1055       H  0.06013454  0.78996532  0.88238649     0.15400
H1056       H  0.94641677  0.84625610  0.91343908     0.15400
C1057       C  0.96263459  0.79910695  0.97805288     0.37100
C1058       C  0.04424856  0.83511239  0.81642564     0.37000
N1059       N  0.94533067  0.79148257  0.51007267    -0.43300
N1060       N  0.06191473  0.84202146  0.78442878    -0.43300
C1061       C  0.03373935  0.71291173  0.92183005     0.00300
C1062       C  0.00208009  0.69442015  0.93098864    -0.11600
C1063       C  0.99604634  0.66049948  0.91292675     0.02500
C1064       C  0.02234495  0.64459297  0.88555665     0.00200
C1065       C  0.05232334  0.66482581  0.87277144    -0.11500
C1066       C  0.05806138  0.69862955  0.89046579     0.02400
H1067       H  0.98346659  0.70516871  0.95564050     0.15400
H1068       H  0.07206360  0.65379669  0.85002738     0.15400
C1069       C  0.09028823  0.71742911  0.87850003     0.37100
C1070       C  0.96395668  0.64189661  0.92600091     0.37000
N1071       N  0.11599715  0.73266240  0.36875216    -0.43300
N1072       N  0.93817519  0.62705382  0.93639627    -0.43300
loop_ 
_geom_bond_atom_site_label_1 
_geom_bond_atom_site_label_2 
_geom_bond_distance 
_geom_bond_site_symmetry_2 
_ccdc_geom_bond_type 
N1            C2   1.359       .  A
N1          C541   1.361       .  A
N1          C513   1.447       .  S
C2          C525   1.475       .  S
C2          C539   1.380       .  A
C3            C4   1.366   1_556  A
C3          C538   1.380       .  A
C3            H6   1.082       .  S
C4            C5   1.380       .  A
C4            H7   1.082       .  S
C5          N537   1.361   1_554  A
C5          C501   1.474       .  S
N8            C9   1.355       .  A
N8          C548   1.357   1_554  A
N8          C480   1.442       .  S
C9          C489   1.470       .  S
C9          C546   1.380   1_554  A
C10          C11   1.369       .  A
C10         C545   1.380       .  A
C10          H13   1.082       .  S
C11          C12   1.381       .  A
C11          H14   1.082       .  S
C12         N544   1.357       .  A
C12         C465   1.473       .  S
N15          C16   1.363       .  A
N15         C555   1.361       .  A
N15         C453   1.452       .  S
C16         C432   1.474       .  S
C16         C553   1.381       .  A
C17          C18   1.364       .  A
C17         C552   1.381   1_554  A
C17          H20   1.083       .  S
C18          C19   1.380       .  A
C18          H21   1.082       .  S
C19         N551   1.361   1_554  A
C19         C441   1.478       .  S
N22          C23   1.365       .  A
N22         C562   1.364   1_554  A
N22         C417   1.455       .  S
C23         C396   1.479       .  S
C23         C560   1.381   1_554  A
C24          C25   1.363       .  A
C24         C559   1.381       .  A
C24          H27   1.083       .  S
C25          C26   1.381       .  A
C25          H28   1.082       .  S
C26         N558   1.364       .  A
C26         C408   1.487       .  S
N29          C30   1.362       .  A
N29         C569   1.362       .  A
N29         C381   1.453       .  S
C30         C357   1.476       .  S
C30         C567   1.382       .  A
C31          C32   1.363       .  A
C31         C566   1.382   1_554  A
C31          H34   1.083       .  S
C32          C33   1.378       .  A
C32          H35   1.082       .  S
C33         N565   1.362   1_554  A
C33         C369   1.472       .  S
N36          C37   1.359       .  A
N36         C576   1.361   1_554  A
N36         C345   1.447       .  S
C37         C321   1.473       .  S
C37         C574   1.380       .  A
C38          C39   1.366       .  A
C38         C573   1.380       .  A
C38          H41   1.082       .  S
C39          C40   1.381       .  A
C39          H42   1.082       .  S
C40         N572   1.361       .  A
C40         C333   1.476       .  S
N43          C44   1.359       .  A
N43         C583   1.356   1_554  A
N43         C297   1.446       .  S
C44         C312   1.475       .  S
C44         C581   1.382   1_554  A
C45          C46   1.368       .  A
C45         C580   1.382       .  A
C45          H48   1.083       .  S
C46          C47   1.379       .  A
C46          H49   1.082       .  S
C47         N579   1.356       .  A
C47         C285   1.474       .  S
N50          C51   1.360       .  A
N50         C590   1.356       .  A
N50         C261   1.445       .  S
C51         C273   1.475       .  S
C51         C588   1.382       .  A
C52          C53   1.368       .  A
C52         C587   1.382   1_554  A
C52          H55   1.083       .  S
C53          C54   1.380       .  A
C53          H56   1.082       .  S
C54         N586   1.356   1_554  A
C54         C249   1.476       .  S
O57         Mg59   2.141       .  S
O57         Mg65   2.135       .  S
O57          C92   1.241       .  S
C58          H97   1.081       .  S
C58          O71   1.238       .  S
C58          O95   1.272       .  A
Mg59         O88   2.132       .  S
Mg59        O103   2.310       .  S
Mg59         O99   2.282       .  S
Mg59         O70   2.300       .  S
O60        Mg102   2.128       .  S
O60         Mg85   2.124       .  S
O60          C81   1.241       .  S
O61          C92   1.275       .  A
O61         Mg85   2.315       .  S
C62         C336   1.496       .  S
C62          O64   1.273       .  A
C62          O76   1.275       .  A
O63          C91   1.273       .  A
O63         Mg65   2.298       .  S
O64         Mg96   2.252       .  S
Mg65         O71   2.135       .  S
Mg65         O79   2.255       .  S
Mg65         O67   2.316       .  S
C66         C276   1.492       .  S
C66         O104   1.270       .  A
C66          O72   1.276       .  A
O67          C74   1.275       .  A
H68          C81   1.081       .  S
C69          H94   1.081       .  S
C69          O83   1.241       .  S
C69          O84   1.275       .  A
O70          C93   1.271       .  A
O71         Mg85   2.126       .  S
O72        Mg102   2.326       .  S
C73         C384   1.506       .  S
C73          O86   1.273       .  A
C73          O78   1.283       .  A
C74         C372   1.491       .  S
C74         O101   1.274       .  A
Mg75         O82   2.123       .  S
Mg75         O83   2.127       .  S
Mg75         O76   2.325       .  S
Mg75         O77   2.306       .  S
Mg75        O104   2.237       .  S
O77          C81   1.274       .  A
O78         Mg85   2.362       .  S
O79          C98   1.273       .  A
O80         C100   1.280       .  A
O80         Mg96   2.345       .  S
O82         Mg96   2.120       .  S
O82          C93   1.238       .  S
O83        Mg102   2.138       .  S
O84         Mg96   2.315       .  S
Mg85        O101   2.260       .  S
O86        Mg102   2.270       .  S
H87          C92   1.081       .  S
O88         Mg96   2.116       .  S
O88          C91   1.240       .  S
H89          C91   1.081       .  S
H90          C93   1.081       .  S
O95        Mg102   2.306       .  S
C98         C309   1.494       .  S
C98         O103   1.275       .  A
O99         C100   1.275       .  A
C100        C348   1.499       .  S
O105       Mg107   2.137       .  S
O105       Mg113   2.123       .  S
O105        C140   1.241   1_545  S
C106        H145   1.081       .  S
C106        O119   1.237       .  S
C106        O143   1.272       .  A
Mg107       O136   2.132       .  S
Mg107       O151   2.323       .  S
Mg107       O147   2.285       .  S
Mg107       O118   2.307   1_545  S
O108       Mg150   2.129       .  S
O108       Mg133   2.114       .  S
O108        C129   1.241       .  S
O109        C140   1.276       .  A
O109       Mg133   2.320       .  S
C110        C405   1.488       .  S
C110        O112   1.265       .  A
C110        O124   1.276   1_545  A
O111        C139   1.275       .  A
O111       Mg113   2.305       .  S
O112       Mg144   2.230       .  S
Mg113       O119   2.144       .  S
Mg113       O127   2.251       .  S
Mg113       O115   2.333       .  S
C114        C360   1.493       .  S
C114        O152   1.272       .  A
C114        O120   1.275       .  A
O115        C122   1.275       .  A
H116        C129   1.081       .  S
C117        H142   1.081       .  S
C117        O131   1.241   1_545  S
C117        O132   1.277       .  A
O118        C141   1.272       .  A
O119       Mg133   2.114   1_545  S
O120       Mg150   2.326       .  S
C121        C456   1.501       .  S
C121        O134   1.276       .  A
C121        O126   1.278       .  A
C122        C444   1.485   1_545  S
C122        O149   1.267   1_545  A
Mg123       O130   2.142       .  S
Mg123       O131   2.115       .  S
Mg123       O124   2.345       .  S
Mg123       O125   2.310       .  S
Mg123       O152   2.233       .  S
O125        C129   1.275       .  A
O126       Mg133   2.337       .  S
O127        C146   1.273       .  A
O128        C148   1.277       .  A
O128       Mg144   2.337       .  S
O130       Mg144   2.109   1_565  S
O130        C141   1.237       .  S
O131       Mg150   2.145       .  S
O132       Mg144   2.327       .  S
Mg133       O149   2.231       .  S
O134       Mg150   2.288       .  S
H135        C140   1.081       .  S
O136       Mg144   2.114       .  S
O136        C139   1.241       .  S
H137        C139   1.081       .  S
H138        C141   1.081       .  S
O143       Mg150   2.305   1_545  S
C146        C324   1.491       .  S
C146        O151   1.276       .  A
O147        C148   1.276       .  A
C148        C420   1.502       .  S
O153       Mg155   2.134   1_565  S
O153       Mg161   2.131       .  S
O153        C188   1.241   1_455  S
C154        H193   1.081       .  S
C154        O167   1.238       .  S
C154        O191   1.272       .  A
Mg155       O184   2.123       .  S
Mg155       O199   2.325       .  S
Mg155       O195   2.280       .  S
Mg155       O166   2.310   1_455  S
O156       Mg198   2.133       .  S
O156       Mg181   2.121       .  S
O156        C177   1.239       .  S
O157        C188   1.275       .  A
O157       Mg181   2.311       .  S
C158        C468   1.484       .  S
C158        O160   1.272       .  A
C158        O172   1.276       .  A
O159        C187   1.274       .  A
O159       Mg161   2.304   1_545  S
O160       Mg192   2.253   1_655  S
Mg161       O167   2.135       .  S
Mg161       O175   2.265       .  S
Mg161       O163   2.331       .  S
C162        C429   1.494       .  S
C162        O200   1.272   1_565  A
C162        O168   1.278       .  A
O163        C170   1.278       .  A
H164        C177   1.081       .  S
C165        H190   1.081   1_655  S
C165        O179   1.241       .  S
C165        O180   1.276   1_655  A
O166        C189   1.274       .  A
O167       Mg181   2.124   1_455  S
O168       Mg198   2.329       .  S
C169        C516   1.501       .  S
C169        O182   1.275       .  A
C169        O174   1.279       .  A
C170        C504   1.497       .  S
C170        O197   1.271       .  A
Mg171       O178   2.134       .  S
Mg171       O179   2.134       .  S
Mg171       O172   2.324       .  S
Mg171       O173   2.300   1_545  S
Mg171       O200   2.246       .  S
O173        C177   1.273       .  A
O174       Mg181   2.337       .  S
O175        C194   1.274   1_565  A
O176        C196   1.279   1_655  A
O176       Mg192   2.346   1_655  S
O178       Mg192   2.123   1_655  S
O178        C189   1.239       .  S
O179       Mg198   2.140   1_545  S
O180       Mg192   2.315       .  S
Mg181       O197   2.249   1_655  S
O182       Mg198   2.286       .  S
H183        C188   1.081       .  S
O184       Mg192   2.122       .  S
O184        C187   1.240       .  S
H185        C187   1.081       .  S
H186        C189   1.081       .  S
O191       Mg198   2.305   1_455  S
C194        C393   1.496       .  S
C194        O199   1.277       .  A
O195        C196   1.273       .  A
C196        C477   1.490   1_455  S
O201       Mg203   2.136   1_655  S
O201       Mg209   2.129       .  S
O201        C236   1.240       .  S
C202        H241   1.081       .  S
C202        O215   1.239       .  S
C202        O239   1.274       .  A
Mg203       O232   2.126       .  S
Mg203       O247   2.310       .  S
Mg203       O243   2.279       .  S
Mg203       O214   2.300       .  S
O204       Mg246   2.122       .  S
O204       Mg229   2.124       .  S
O204        C225   1.241       .  S
O205        C236   1.275       .  A
O205       Mg229   2.315       .  S
C206        C288   1.483       .  S
C206        O208   1.272       .  A
C206        O220   1.277       .  A
O207        C235   1.275   1_655  A
O207       Mg209   2.304       .  S
O208       Mg240   2.242       .  S
Mg209       O215   2.138       .  S
Mg209       O223   2.254       .  S
Mg209       O211   2.343       .  S
C210        C528   1.489       .  S
C210        O248   1.273       .  A
C210        O216   1.275   1_455  A
O211        C218   1.277       .  A
H212        C225   1.081       .  S
C213        H238   1.081       .  S
C213        O227   1.241       .  S
C213        O228   1.275       .  A
O214        C237   1.272       .  A
O215       Mg229   2.117       .  S
O216       Mg246   2.318       .  S
C217        C264   1.485       .  S
C217        O230   1.272       .  A
C217        O222   1.279       .  A
C218        C252   1.481       .  S
C218        O245   1.271       .  A
Mg219       O226   2.127       .  S
Mg219       O227   2.128       .  S
Mg219       O220   2.335       .  S
Mg219       O221   2.309       .  S
Mg219       O248   2.252       .  S
O221        C225   1.275   1_455  A
O222       Mg229   2.350       .  S
O223        C242   1.274       .  A
O224        C244   1.279       .  A
O224       Mg240   2.348       .  S
O226       Mg240   2.120       .  S
O226        C237   1.238       .  S
O227       Mg246   2.138   1_455  S
O228       Mg240   2.314       .  S
Mg229       O245   2.241       .  S
O230       Mg246   2.270       .  S
H231        C236   1.081       .  S
O232       Mg240   2.119       .  S
O232        C235   1.241       .  S
H233        C235   1.081       .  S
H234        C237   1.081       .  S
O239       Mg246   2.311       .  S
C242        C492   1.488       .  S
C242        O247   1.275   1_655  A
O243        C244   1.273       .  A
C244        C300   1.485       .  S
C249        C250   1.407       .  A
C249        C254   1.406       .  A
C250        C251   1.409       .  A
C250        H255   1.084       .  S
C251        C252   1.411       .  A
C251        C258   1.443       .  S
C252        C253   1.405       .  A
C253        C254   1.395       .  A
C253        H256   1.085       .  S
C254        C257   1.445       .  S
C257        N795   1.157       .  T
C258        N260   1.157       .  T
N259        C793   1.157       .  T
C261        C262   1.402       .  A
C261        C266   1.412       .  A
C262        C263   1.407       .  A
C262        H267   1.082       .  S
C263        C264   1.415       .  A
C263        C270   1.443       .  S
C264        C265   1.403       .  A
C265        C266   1.404       .  A
C265        H268   1.085       .  S
C266        C269   1.442       .  S
C269        N271   1.157       .  T
C270        N272   1.157       .  T
C273        C274   1.404       .  A
C273        C278   1.408       .  A
C274        C275   1.404       .  A
C274        H279   1.085       .  S
C275        C276   1.418       .  A
C275        C282   1.444       .  S
C276        C277   1.408       .  A
C277        C278   1.396       .  A
C277        H280   1.084       .  S
C278        C281   1.444       .  S
C281        N283   1.157       .  T
C282        N284   1.158       .  T
C285        C286   1.405       .  A
C285        C290   1.405       .  A
C286        C287   1.406       .  A
C286        H291   1.084       .  S
C287        C288   1.412       .  A
C287        C294   1.443       .  S
C288        C289   1.407       .  A
C289        C290   1.396       .  A
C289        H292   1.085       .  S
C290        C293   1.445       .  S
C293        N295   1.157       .  T
C294        N296   1.157       .  T
C297        C298   1.400       .  A
C297        C302   1.413       .  A
C298        C299   1.404       .  A
C298        H303   1.082       .  S
C299        C300   1.414       .  A
C299        C306   1.443       .  S
C300        C301   1.403       .  A
C301        C302   1.408       .  A
C301        H304   1.084       .  S
C302        C305   1.442       .  S
C305        N843   1.157       .  T
C306        N308   1.157       .  T
N307        C841   1.157       .  T
C309        C310   1.408       .  A
C309        C314   1.419       .  A
C310        C311   1.398       .  A
C310        H315   1.084       .  S
C311        C312   1.408       .  A
C311        C854   1.444       .  S
C312        C313   1.402       .  A
C313        C314   1.403       .  A
C313        H316   1.085       .  S
C314        C317   1.445       .  S
C317        N319   1.158       .  T
C318        C847   1.444       .  S
C318        N320   1.157       .  T
C321        C322   1.404       .  A
C321        C326   1.405       .  A
C322        C323   1.405       .  A
C322        H327   1.085       .  S
C323        C324   1.417       .  A
C323        C330   1.444       .  S
C324        C325   1.409       .  A
C325        C326   1.398       .  A
C325        H328   1.085       .  S
C326        C865   1.444       .  S
C329        C862   1.444       .  S
C329        N331   1.157       .  T
C330        N332   1.157       .  T
C333        C334   1.401       .  A
C333        C338   1.409       .  A
C334        C335   1.408       .  A
C334        H339   1.085       .  S
C335        C336   1.421       .  A
C335        C342   1.444       .  S
C336        C337   1.408       .  A
C337        C338   1.395       .  A
C337        H340   1.084       .  S
C338        C341   1.446       .  S
C341        N343   1.157       .  T
C342        N344   1.157       .  T
C345        C346   1.403       .  A
C345        C350   1.408       .  A
C346        C347   1.406       .  A
C346        H351   1.084       .  S
C347        C348   1.419       .  A
C347        C354   1.445       .  S
C348        C349   1.410       .  A
C349        C350   1.408       .  A
C349        H352   1.084       .  S
C350        C353   1.440       .  S
C353        N355   1.157       .  T
C354        N356   1.158       .  T
C357        C358   1.403       .  A
C357        C362   1.408       .  A
C358        C359   1.408       .  A
C358        H363   1.085       .  S
C359        C360   1.420       .  A
C359        C366   1.444       .  S
C360        C361   1.407       .  A
C361        C362   1.391       .  A
C361        H364   1.084       .  S
C362        C365   1.446       .  S
C365        N367   1.157       .  T
C366        N368   1.158       .  T
C369        C370   1.401       .  A
C369        C374   1.408       .  A
C370        C371   1.405       .  A
C370        H375   1.085       .  S
C371        C372   1.419       .  A
C371        C378   1.444       .  S
C372        C373   1.408       .  A
C373        C374   1.396       .  A
C373        H376   1.085       .  S
C374        C377   1.445       .  S
C377        N379   1.157       .  T
C378        N380   1.157       .  T
C381        C382   1.403       .  A
C381        C386   1.414       .  A
C382        C383   1.408       .  A
C382        H387   1.083       .  S
C383        C384   1.422       .  A
C383        C390   1.444       .  S
C384        C385   1.407       .  A
C385        C386   1.406       .  A
C385        H388   1.084       .  S
C386        C389   1.440       .  S
C389        N927   1.157       .  T
C390        N392   1.157       .  T
N391        C925   1.157       .  T
C393        C394   1.406       .  A
C393        C398   1.419       .  A
C394        C395   1.400       .  A
C394        H399   1.084   1_545  S
C395        C396   1.412       .  A
C395        C402   1.444   1_545  S
C396        C397   1.403       .  A
C397        C398   1.406       .  A
C397        H936   1.085       .  S
C398        C401   1.444       .  S
H400        C933   1.085       .  S
C401        N939   1.158       .  T
C402        N404   1.157       .  T
N403        C937   1.158       .  T
C405        C406   1.406   1_545  A
C405        C410   1.418       .  A
C406        C407   1.407   1_565  A
C406        H411   1.084       .  S
C407        C408   1.414       .  A
C407        C414   1.441   1_545  S
C408        C409   1.401       .  A
C409        C410   1.393       .  A
C409        H412   1.085       .  S
C410        C413   1.446       .  S
C413        N415   1.158       .  T
C414        N416   1.157       .  T
C417        C418   1.404       .  A
C417        C422   1.416       .  A
C418        C419   1.410       .  A
C418        H423   1.081       .  S
C419        C420   1.421       .  A
C419        C426   1.443       .  S
C420        C421   1.405       .  A
C421        C422   1.403       .  A
C421        H424   1.085       .  S
C422        C425   1.443       .  S
C425        N963   1.157   1_554  T
C426        N428   1.157   1_545  T
N427        C961   1.157       .  T
C429        C430   1.407   1_565  A
C429        C434   1.418       .  A
C430        C431   1.396   1_545  A
C430        H435   1.084       .  S
C431        C432   1.409       .  A
C431        C438   1.444   1_565  S
C432        C433   1.403       .  A
C433        C434   1.406       .  A
C433        H436   1.085       .  S
C434        C437   1.444       .  S
C437        N439   1.158       .  T
C438        N976   1.157       .  T
N440        C974   1.157       .  T
C441        C442   1.398       .  A
C441        C446   1.411   1_565  A
C442        C443   1.392       .  A
C442        H447   1.085       .  S
C443        C444   1.418       .  A
C443        C450   1.446       .  S
C444        C445   1.406   1_565  A
C445        C446   1.406       .  A
C445        H448   1.084       .  S
C446        C449   1.442       .  S
C449        N451   1.157   1_554  T
C450        N452   1.157       .  T
C453        C454   1.403       .  A
C453        C458   1.414       .  A
C454        C455   1.408       .  A
C454        H459   1.081   1_565  S
C455        C456   1.420       .  A
C455        C462   1.444   1_565  S
C456        C457   1.406       .  A
C457        C458   1.405       .  A
C457        H460   1.085       .  S
C458        C461   1.443       .  S
C461        N463   1.157       .  T
C462        N464   1.157       .  T
C465        C466   1.398       .  A
C465        C470   1.409       .  A
C466        C467   1.399       .  A
C466        H471   1.085   1_655  S
C467        C468   1.417       .  A
C467        C474   1.445   1_655  S
C468        C469   1.405       .  A
C469        C470   1.404       .  A
C469        H472   1.084       .  S
C470        C473   1.443       .  S
C473        N475   1.157       .  T
C474        N476   1.157       .  T
C477        C478   1.408   1_655  A
C477        C482   1.416       .  A
C478        C479   1.408       .  A
C478        H483   1.084       .  S
C479        C480   1.407   1_455  A
C479        C486   1.441       .  S
C480        C481   1.400       .  A
C481        C482   1.404       .  A
C481        H484   1.084       .  S
C482        C485   1.444       .  S
C485        N487   1.157       .  T
C486        N488   1.157       .  T
C489        C490   1.402   1_655  A
C489        C494   1.405       .  A
C490        C491   1.402       .  A
C490       H1031   1.085       .  S
C491        C492   1.417   1_455  A
C491        C498   1.444       .  S
C492        C493   1.409       .  A
C493        C494   1.398       .  A
C493        H496   1.085       .  S
C494        C497   1.444       .  S
H495       C1026   1.085       .  S
C497        N499   1.157       .  T
C498        N500   1.157       .  T
C501        C502   1.398       .  A
C501        C506   1.406       .  A
C502        C503   1.397       .  A
C502        H507   1.086       .  S
C503        C504   1.422       .  A
C503        C510   1.445   1_455  S
C504        C505   1.412       .  A
C505        C506   1.406       .  A
C505        H508   1.084       .  S
C506        C509   1.443   1_554  S
C509       N1047   1.157       .  T
C510        N512   1.158       .  T
N511       C1045   1.157       .  T
C513        C514   1.402       .  A
C513        C518   1.408   1_455  A
C514        C515   1.404       .  A
C514        H519   1.084       .  S
C515        C516   1.420   1_455  A
C515        C522   1.444       .  S
C516        C517   1.411       .  A
C517        C518   1.409       .  A
C517        H520   1.084       .  S
C518        C521   1.441       .  S
C521       N1059   1.157       .  T
C522        N524   1.157       .  T
N523       C1057   1.157   1_554  T
C525        C526   1.404       .  A
C525        C530   1.406       .  A
C526        C527   1.406   1_455  A
C526        H531   1.085   1_455  S
C527        C528   1.417   1_655  A
C527        C534   1.444       .  S
C528        C529   1.407       .  A
C529        C530   1.397       .  A
C529        H532   1.085       .  S
C530        C533   1.444       .  S
C533       N1071   1.157       .  T
C534        N536   1.158       .  T
N535       C1069   1.157       .  T
N537        C538   1.359       .  A
N537       C1049   1.447       .  S
C538       C1061   1.475       .  S
C539        C540   1.366       .  A
C539        H542   1.082       .  S
C540        C541   1.380       .  A
C540        H543   1.082       .  S
C541       C1037   1.474       .  S
N544        C545   1.355       .  A
N544       C1016   1.442       .  S
C545       C1025   1.470       .  S
C546        C547   1.369       .  A
C546        H549   1.082       .  S
C547        C548   1.381       .  A
C547        H550   1.082       .  S
C548       C1001   1.473       .  S
N551        C552   1.363       .  A
N551        C989   1.452       .  S
C552        C968   1.474       .  S
C553        C554   1.364       .  A
C553        H556   1.083       .  S
C554        C555   1.380       .  A
C554        H557   1.082       .  S
C555        C977   1.478       .  S
N558        C559   1.365       .  A
N558        C953   1.455       .  S
C559        C932   1.479       .  S
C560        C561   1.363       .  A
C560        H563   1.083       .  S
C561        C562   1.381       .  A
C561        H564   1.082       .  S
C562        C944   1.487       .  S
N565        C566   1.362       .  A
N565        C917   1.453       .  S
C566        C893   1.476       .  S
C567        C568   1.363       .  A
C567        H570   1.083       .  S
C568        C569   1.378       .  A
C568        H571   1.082       .  S
C569        C905   1.472       .  S
N572        C573   1.359       .  A
N572        C881   1.447       .  S
C573        C857   1.473       .  S
C574        C575   1.366   1_554  A
C574        H577   1.082       .  S
C575        C576   1.381       .  A
C575        H578   1.082       .  S
C576        C869   1.476       .  S
N579        C580   1.359       .  A
N579        C833   1.446       .  S
C580        C848   1.475       .  S
C581        C582   1.368       .  A
C581        H584   1.083       .  S
C582        C583   1.379       .  A
C582        H585   1.082       .  S
C583        C821   1.474       .  S
N586        C587   1.360       .  A
N586        C797   1.445       .  S
C587        C809   1.475       .  S
C588        C589   1.368       .  A
C588        H591   1.083       .  S
C589        C590   1.380       .  A
C589        H592   1.082       .  S
C590        C785   1.476       .  S
O593       Mg595   2.141       .  S
O593       Mg601   2.135       .  S
O593        C628   1.241       .  S
C594        H633   1.081       .  S
C594        O607   1.238       .  S
C594        O631   1.272       .  A
Mg595       O624   2.132       .  S
Mg595       O639   2.310       .  S
Mg595       O635   2.282       .  S
Mg595       O606   2.300       .  S
O596       Mg638   2.128       .  S
O596       Mg621   2.124       .  S
O596        C617   1.241       .  S
O597        C628   1.275       .  A
O597       Mg621   2.315       .  S
C598        C872   1.496       .  S
C598        O600   1.273       .  A
C598        O612   1.275       .  A
O599        C627   1.273       .  A
O599       Mg601   2.298       .  S
O600       Mg632   2.252       .  S
Mg601       O607   2.135       .  S
Mg601       O615   2.255       .  S
Mg601       O603   2.316       .  S
C602        C812   1.492       .  S
C602        O640   1.270       .  A
C602        O608   1.276       .  A
O603        C610   1.275       .  A
H604        C617   1.081       .  S
C605        H630   1.081       .  S
C605        O619   1.241       .  S
C605        O620   1.275       .  A
O606        C629   1.271       .  A
O607       Mg621   2.126       .  S
O608       Mg638   2.326       .  S
C609        C920   1.506       .  S
C609        O622   1.273       .  A
C609        O614   1.283       .  A
C610        C908   1.492       .  S
C610        O637   1.274       .  A
Mg611       O618   2.123       .  S
Mg611       O619   2.127       .  S
Mg611       O612   2.325       .  S
Mg611       O613   2.306       .  S
Mg611       O640   2.237       .  S
O613        C617   1.274       .  A
O614       Mg621   2.362       .  S
O615        C634   1.273       .  A
O616        C636   1.280       .  A
O616       Mg632   2.345       .  S
O618       Mg632   2.120       .  S
O618        C629   1.238       .  S
O619       Mg638   2.139       .  S
O620       Mg632   2.315       .  S
Mg621       O637   2.261       .  S
O622       Mg638   2.270       .  S
H623        C628   1.081       .  S
O624       Mg632   2.116       .  S
O624        C627   1.240       .  S
H625        C627   1.081       .  S
H626        C629   1.081       .  S
O631       Mg638   2.306       .  S
C634        C845   1.494       .  S
C634        O639   1.275       .  A
O635        C636   1.275       .  A
C636        C884   1.500       .  S
O641       Mg643   2.137       .  S
O641       Mg649   2.123       .  S
O641        C676   1.241   1_545  S
C642        H681   1.081       .  S
C642        O655   1.237       .  S
C642        O679   1.272       .  A
Mg643       O672   2.132       .  S
Mg643       O687   2.323       .  S
Mg643       O683   2.285       .  S
Mg643       O654   2.307   1_545  S
O644       Mg686   2.129       .  S
O644       Mg669   2.114       .  S
O644        C665   1.241       .  S
O645        C676   1.276       .  A
O645       Mg669   2.320       .  S
C646        C941   1.488       .  S
C646        O648   1.265       .  A
C646        O660   1.276   1_545  A
O647        C675   1.275       .  A
O647       Mg649   2.305       .  S
O648       Mg680   2.230       .  S
Mg649       O655   2.144       .  S
Mg649       O663   2.251       .  S
Mg649       O651   2.333       .  S
C650        C896   1.493       .  S
C650        O688   1.272       .  A
C650        O656   1.275       .  A
O651        C658   1.275       .  A
H652        C665   1.081       .  S
C653        H678   1.081       .  S
C653        O667   1.241   1_545  S
C653        O668   1.277       .  A
O654        C677   1.272       .  A
O655       Mg669   2.114   1_545  S
O656       Mg686   2.326       .  S
C657        C992   1.501       .  S
C657        O670   1.276       .  A
C657        O662   1.278       .  A
C658        C980   1.485   1_545  S
C658        O685   1.267   1_545  A
Mg659       O666   2.142       .  S
Mg659       O667   2.115       .  S
Mg659       O660   2.344       .  S
Mg659       O661   2.310       .  S
Mg659       O688   2.233       .  S
O661        C665   1.275       .  A
O662       Mg669   2.337       .  S
O663        C682   1.273       .  A
O664        C684   1.277       .  A
O664       Mg680   2.337       .  S
O666       Mg680   2.109   1_565  S
O666        C677   1.237       .  S
O667       Mg686   2.145       .  S
O668       Mg680   2.327       .  S
Mg669       O685   2.231       .  S
O670       Mg686   2.288       .  S
H671        C676   1.081       .  S
O672       Mg680   2.114       .  S
O672        C675   1.241       .  S
H673        C675   1.081       .  S
H674        C677   1.081       .  S
O679       Mg686   2.305   1_545  S
C682        C860   1.491       .  S
C682        O687   1.276       .  A
O683        C684   1.276       .  A
C684        C956   1.502       .  S
O689       Mg691   2.134   1_565  S
O689       Mg697   2.131       .  S
O689        C724   1.241   1_455  S
C690        H729   1.081       .  S
C690        O703   1.238       .  S
C690        O727   1.272       .  A
Mg691       O720   2.123       .  S
Mg691       O735   2.325       .  S
Mg691       O731   2.280       .  S
Mg691       O702   2.310   1_455  S
O692       Mg734   2.133       .  S
O692       Mg717   2.121       .  S
O692        C713   1.239       .  S
O693        C724   1.275       .  A
O693       Mg717   2.311       .  S
C694       C1004   1.484       .  S
C694        O696   1.272       .  A
C694        O708   1.276       .  A
O695        C723   1.274       .  A
O695       Mg697   2.304   1_545  S
O696       Mg728   2.253   1_655  S
Mg697       O703   2.135       .  S
Mg697       O711   2.265       .  S
Mg697       O699   2.331       .  S
C698        C965   1.493       .  S
C698        O736   1.272   1_565  A
C698        O704   1.278       .  A
O699        C706   1.278       .  A
H700        C713   1.081       .  S
C701        H726   1.081   1_655  S
C701        O715   1.241       .  S
C701        O716   1.276   1_655  A
O702        C725   1.274       .  A
O703       Mg717   2.124   1_455  S
O704       Mg734   2.329       .  S
C705       C1052   1.501       .  S
C705        O718   1.275       .  A
C705        O710   1.279       .  A
C706       C1040   1.497       .  S
C706        O733   1.271       .  A
Mg707       O714   2.134       .  S
Mg707       O715   2.134       .  S
Mg707       O708   2.324       .  S
Mg707       O709   2.299   1_545  S
Mg707       O736   2.246       .  S
O709        C713   1.273       .  A
O710       Mg717   2.337       .  S
O711        C730   1.274   1_565  A
O712        C732   1.279   1_655  A
O712       Mg728   2.346   1_655  S
O714       Mg728   2.123   1_655  S
O714        C725   1.239       .  S
O715       Mg734   2.140   1_545  S
O716       Mg728   2.315       .  S
Mg717       O733   2.249   1_655  S
O718       Mg734   2.286       .  S
H719        C724   1.081       .  S
O720       Mg728   2.122       .  S
O720        C723   1.240       .  S
H721        C723   1.081       .  S
H722        C725   1.081       .  S
O727       Mg734   2.305   1_455  S
C730        C929   1.496       .  S
C730        O735   1.277       .  A
O731        C732   1.273       .  A
C732       C1013   1.491   1_455  S
O737       Mg739   2.136   1_655  S
O737       Mg745   2.129       .  S
O737        C772   1.240       .  S
C738        H777   1.081       .  S
C738        O751   1.239       .  S
C738        O775   1.274       .  A
Mg739       O768   2.126       .  S
Mg739       O783   2.311       .  S
Mg739       O779   2.279       .  S
Mg739       O750   2.300       .  S
O740       Mg782   2.122       .  S
O740       Mg765   2.124       .  S
O740        C761   1.241       .  S
O741        C772   1.275       .  A
O741       Mg765   2.315       .  S
C742        C824   1.483       .  S
C742        O744   1.272       .  A
C742        O756   1.277       .  A
O743        C771   1.275   1_655  A
O743       Mg745   2.304       .  S
O744       Mg776   2.242       .  S
Mg745       O751   2.138       .  S
Mg745       O759   2.254       .  S
Mg745       O747   2.343       .  S
C746       C1064   1.489       .  S
C746        O784   1.273       .  A
C746        O752   1.275   1_455  A
O747        C754   1.277       .  A
H748        C761   1.081       .  S
C749        H774   1.081       .  S
C749        O763   1.241       .  S
C749        O764   1.275       .  A
O750        C773   1.272       .  A
O751       Mg765   2.117       .  S
O752       Mg782   2.318       .  S
C753        C800   1.485       .  S
C753        O766   1.272       .  A
C753        O758   1.279       .  A
C754        C788   1.481       .  S
C754        O781   1.271       .  A
Mg755       O762   2.127       .  S
Mg755       O763   2.128       .  S
Mg755       O756   2.335       .  S
Mg755       O757   2.309       .  S
Mg755       O784   2.252       .  S
O757        C761   1.275   1_455  A
O758       Mg765   2.350       .  S
O759        C778   1.274       .  A
O760        C780   1.279       .  A
O760       Mg776   2.348       .  S
O762       Mg776   2.120       .  S
O762        C773   1.238       .  S
O763       Mg782   2.138   1_455  S
O764       Mg776   2.314       .  S
Mg765       O781   2.241       .  S
O766       Mg782   2.270       .  S
H767        C772   1.081       .  S
O768       Mg776   2.119       .  S
O768        C771   1.241       .  S
H769        C771   1.081       .  S
H770        C773   1.081       .  S
O775       Mg782   2.311       .  S
C778       C1028   1.489       .  S
C778        O783   1.275   1_655  A
O779        C780   1.273       .  A
C780        C836   1.485       .  S
C785        C786   1.407       .  A
C785        C790   1.406       .  A
C786        C787   1.409       .  A
C786        H791   1.084       .  S
C787        C788   1.411       .  A
C787        C794   1.443       .  S
C788        C789   1.405       .  A
C789        C790   1.395       .  A
C789        H792   1.085       .  S
C790        C793   1.445       .  S
C794        N796   1.157       .  T
C797        C798   1.402       .  A
C797        C802   1.412       .  A
C798        C799   1.407       .  A
C798        H803   1.082       .  S
C799        C800   1.415       .  A
C799        C806   1.443       .  S
C800        C801   1.403       .  A
C801        C802   1.404       .  A
C801        H804   1.085       .  S
C802        C805   1.442       .  S
C805        N807   1.157       .  T
C806        N808   1.157       .  T
C809        C810   1.403       .  A
C809        C814   1.408       .  A
C810        C811   1.404       .  A
C810        H815   1.085       .  S
C811        C812   1.418       .  A
C811        C818   1.444       .  S
C812        C813   1.408       .  A
C813        C814   1.396       .  A
C813        H816   1.084       .  S
C814        C817   1.444       .  S
C817        N819   1.157       .  T
C818        N820   1.158       .  T
C821        C822   1.405       .  A
C821        C826   1.405       .  A
C822        C823   1.406       .  A
C822        H827   1.084       .  S
C823        C824   1.412       .  A
C823        C830   1.443       .  S
C824        C825   1.407       .  A
C825        C826   1.396       .  A
C825        H828   1.085       .  S
C826        C829   1.445       .  S
C829        N831   1.157       .  T
C830        N832   1.157       .  T
C833        C834   1.400       .  A
C833        C838   1.413       .  A
C834        C835   1.404       .  A
C834        H839   1.082       .  S
C835        C836   1.414       .  A
C835        C842   1.443       .  S
C836        C837   1.403       .  A
C837        C838   1.408       .  A
C837        H840   1.084       .  S
C838        C841   1.442       .  S
C842        N844   1.157       .  T
C845        C846   1.408       .  A
C845        C850   1.419       .  A
C846        C847   1.398       .  A
C846        H851   1.084       .  S
C847        C848   1.408       .  A
C848        C849   1.402       .  A
C849        C850   1.403       .  A
C849        H852   1.085       .  S
C850        C853   1.445       .  S
C853        N855   1.158       .  T
C854        N856   1.157       .  T
C857        C858   1.404       .  A
C857        C862   1.405       .  A
C858        C859   1.405       .  A
C858        H863   1.085       .  S
C859        C860   1.417       .  A
C859        C866   1.444       .  S
C860        C861   1.409       .  A
C861        C862   1.398       .  A
C861        H864   1.085       .  S
C865        N867   1.157       .  T
C866        N868   1.157       .  T
C869        C870   1.401       .  A
C869        C874   1.409       .  A
C870        C871   1.408       .  A
C870        H875   1.085       .  S
C871        C872   1.421       .  A
C871        C878   1.444       .  S
C872        C873   1.408       .  A
C873        C874   1.395       .  A
C873        H876   1.084       .  S
C874        C877   1.446       .  S
C877        N879   1.157       .  T
C878        N880   1.157       .  T
C881        C882   1.403       .  A
C881        C886   1.408       .  A
C882        C883   1.406       .  A
C882        H887   1.084       .  S
C883        C884   1.419       .  A
C883        C890   1.445       .  S
C884        C885   1.410       .  A
C885        C886   1.408       .  A
C885        H888   1.084       .  S
C886        C889   1.440       .  S
C889        N891   1.157       .  T
C890        N892   1.158       .  T
C893        C894   1.403       .  A
C893        C898   1.408       .  A
C894        C895   1.408       .  A
C894        H899   1.085       .  S
C895        C896   1.420       .  A
C895        C902   1.444       .  S
C896        C897   1.407       .  A
C897        C898   1.391       .  A
C897        H900   1.084       .  S
C898        C901   1.446       .  S
C901        N903   1.157       .  T
C902        N904   1.158       .  T
C905        C906   1.401       .  A
C905        C910   1.408       .  A
C906        C907   1.405       .  A
C906        H911   1.085       .  S
C907        C908   1.419       .  A
C907        C914   1.444       .  S
C908        C909   1.408       .  A
C909        C910   1.396       .  A
C909        H912   1.085       .  S
C910        C913   1.445       .  S
C913        N915   1.157       .  T
C914        N916   1.157       .  T
C917        C918   1.403       .  A
C917        C922   1.414       .  A
C918        C919   1.408       .  A
C918        H923   1.083       .  S
C919        C920   1.422       .  A
C919        C926   1.444       .  S
C920        C921   1.407       .  A
C921        C922   1.406       .  A
C921        H924   1.084       .  S
C922        C925   1.440       .  S
C926        N928   1.157       .  T
C929        C930   1.406       .  A
C929        C934   1.419       .  A
C930        C931   1.400       .  A
C930        H935   1.084   1_545  S
C931        C932   1.412       .  A
C931        C938   1.444   1_545  S
C932        C933   1.403       .  A
C933        C934   1.406       .  A
C934        C937   1.444       .  S
C938        N940   1.157       .  T
C941        C942   1.406   1_545  A
C941        C946   1.418       .  A
C942        C943   1.407   1_565  A
C942        H947   1.084       .  S
C943        C944   1.414       .  A
C943        C950   1.441   1_545  S
C944        C945   1.401       .  A
C945        C946   1.393       .  A
C945        H948   1.085       .  S
C946        C949   1.446       .  S
C949        N951   1.158       .  T
C950        N952   1.157   1_556  T
C953        C954   1.404       .  A
C953        C958   1.416       .  A
C954        C955   1.410       .  A
C954        H959   1.081       .  S
C955        C956   1.421       .  A
C955        C962   1.443       .  S
C956        C957   1.405       .  A
C957        C958   1.403       .  A
C957        H960   1.085       .  S
C958        C961   1.443       .  S
C962        N964   1.157   1_545  T
C965        C966   1.407   1_565  A
C965        C970   1.418       .  A
C966        C967   1.396   1_545  A
C966        H971   1.084       .  S
C967        C968   1.409       .  A
C967        C974   1.444   1_565  S
C968        C969   1.403       .  A
C969        C970   1.406       .  A
C969        H972   1.085       .  S
C970        C973   1.444       .  S
C973        N975   1.158       .  T
C977        C978   1.398       .  A
C977        C982   1.411   1_565  A
C978        C979   1.392       .  A
C978        H983   1.085       .  S
C979        C980   1.418       .  A
C979        C986   1.446       .  S
C980        C981   1.406   1_565  A
C981        C982   1.406       .  A
C981        H984   1.084       .  S
C982        C985   1.442       .  S
C985        N987   1.157       .  T
C986        N988   1.157       .  T
C989        C990   1.403       .  A
C989        C994   1.414       .  A
C990        C991   1.408       .  A
C990        H995   1.081   1_565  S
C991        C992   1.420       .  A
C991        C998   1.444   1_565  S
C992        C993   1.406       .  A
C993        C994   1.405       .  A
C993        H996   1.085       .  S
C994        C997   1.443       .  S
C997        N999   1.157   1_556  T
C998       N1000   1.157       .  T
C1001      C1002   1.398       .  A
C1001      C1006   1.409       .  A
C1002      C1003   1.398       .  A
C1002      H1007   1.085   1_655  S
C1003      C1004   1.417       .  A
C1003      C1010   1.445   1_655  S
C1004      C1005   1.405       .  A
C1005      C1006   1.404       .  A
C1005      H1008   1.084       .  S
C1006      C1009   1.443       .  S
C1009      N1011   1.157       .  T
C1010      N1012   1.157       .  T
C1013      C1014   1.408   1_655  A
C1013      C1018   1.416       .  A
C1014      C1015   1.408       .  A
C1014      H1019   1.084       .  S
C1015      C1016   1.407   1_455  A
C1015      C1022   1.441       .  S
C1016      C1017   1.400       .  A
C1017      C1018   1.404       .  A
C1017      H1020   1.084       .  S
C1018      C1021   1.444       .  S
C1021      N1023   1.157       .  T
C1022      N1024   1.157       .  T
C1025      C1026   1.402   1_655  A
C1025      C1030   1.405       .  A
C1026      C1027   1.402       .  A
C1027      C1028   1.417   1_455  A
C1027      C1034   1.444       .  S
C1028      C1029   1.409       .  A
C1029      C1030   1.398       .  A
C1029      H1032   1.085       .  S
C1030      C1033   1.444       .  S
C1033      N1035   1.157       .  T
C1034      N1036   1.157       .  T
C1037      C1038   1.398       .  A
C1037      C1042   1.406       .  A
C1038      C1039   1.397       .  A
C1038      H1043   1.086       .  S
C1039      C1040   1.422       .  A
C1039      C1046   1.445   1_455  S
C1040      C1041   1.412       .  A
C1041      C1042   1.406       .  A
C1041      H1044   1.084       .  S
C1042      C1045   1.443       .  S
C1046      N1048   1.158       .  T
C1049      C1050   1.402       .  A
C1049      C1054   1.408   1_455  A
C1050      C1051   1.404       .  A
C1050      H1055   1.084       .  S
C1051      C1052   1.420   1_455  A
C1051      C1058   1.444       .  S
C1052      C1053   1.411       .  A
C1053      C1054   1.409       .  A
C1053      H1056   1.084       .  S
C1054      C1057   1.441       .  S
C1058      N1060   1.157       .  T
C1061      C1062   1.404       .  A
C1061      C1066   1.406       .  A
C1062      C1063   1.406   1_455  A
C1062      H1067   1.085   1_455  S
C1063      C1064   1.417   1_655  A
C1063      C1070   1.444       .  S
C1064      C1065   1.407       .  A
C1065      C1066   1.397       .  A
C1065      H1068   1.085       .  S
C1066      C1069   1.444       .  S
C1070      N1072   1.158       .  T
