geometry optimzed in LAMMPS
_audit_creation_date              2020-12-01 
_audit_creation_method            'lammps2cif' 
_symmetry_space_group_name_H-M    'P1' 
_symmetry_Int_Tables_number       1 
_symmetry_cell_setting            triclinic 
loop_ 
_symmetry_equiv_pos_as_xyz 
  x,y,z 
_cell_length_a                    42.16169302 
_cell_length_b                    30.73577066812423 
_cell_length_c                    47.512006585673255 
_cell_angle_alpha                 90.28444426554032 
_cell_angle_beta                  97.66768662552178 
_cell_angle_gamma                 89.62028196886494 
loop_ 
_atom_site_label 
_atom_site_type_symbol 
_atom_site_fract_x 
_atom_site_fract_y 
_atom_site_fract_z 
_atom_site_charge 
C1          C  0.97496540  0.05025592  0.39147601     0.30600
C2          C  0.97615467  0.45790895  0.38495082     0.30600
C3          C  0.94874837  0.02723534  0.37095153    -0.05600
C4          C  0.00683122  0.03129767  0.38107329    -0.06400
C5          C  0.97481807  0.02594482  0.41963782    -0.06300
C6          C  0.94787305  0.47980442  0.36576534    -0.05600
C7          C  0.00462046  0.48281499  0.37585506    -0.06400
C8          C  0.97475521  0.47645954  0.41494580    -0.06300
C9          C  0.93171111  0.47079216  0.33874986    -0.31600
N10         N  0.91498117  0.50585813  0.32807156     0.14900
C11         C  0.92568843  0.04081196  0.34883640    -0.31700
H12         H  0.91841552  0.07297757  0.34326911     0.16800
C13         C  0.03171507  0.47105767  0.36460088    -0.30600
N14         N  0.04799946  0.50689031  0.35893459     0.13600
C15         C  0.03545400  0.04443684  0.37117058    -0.30600
C16         C  0.97947580  0.46067760  0.44253788    -0.30900
N17         N  0.98149110  0.00000200  0.46386072     0.14100
H18         H  0.98321664  0.42698950  0.44869407     0.16700
C19         C  0.97845185  0.03699022  0.44815077    -0.30900
H20         H  0.97943984  0.06961929  0.45688577     0.16700
H21         H  0.04362489  0.07720680  0.36892139     0.16700
H22         H  0.93605282  0.44421386  0.32541592     0.16800
H23         H  0.03919689  0.43878663  0.36036862     0.16700
Zr24       Zr  0.81873985  0.19148140  0.29727491     2.17500
O25         O  0.79154675  0.14430052  0.32741910    -0.50700
O26         O  0.81749916  0.11808267  0.27391098    -0.73900
O27         O  0.76124863  0.21406798  0.29784154    -0.80700
O28         O  0.89591781  0.14839340  0.31258155    -0.82500
O29         O  0.75264320  0.27955063  0.27568699    -0.78100
O30         O  0.86035406  0.17038996  0.33933347    -0.89700
O31         O  0.83455363  0.12501082  0.23064649    -0.75700
O32         O  0.80302476  0.22394588  0.25112046    -0.85200
O33         O  0.86062585  0.17737827  0.26887444    -0.84900
O34         O  0.81061984  0.27008851  0.30211747    -0.71600
O35         O  0.86485680  0.22783929  0.32010229    -0.83800
Zr36       Zr  0.88760168  0.31961297  0.25421392     2.26400
Zr37       Zr  0.79938244  0.30294996  0.25518043     2.06300
Zr38       Zr  0.90584913  0.21428856  0.29047628     2.10000
Zr39       Zr  0.84438388  0.20539419  0.22355619     1.78800
O40         O  0.93638090  0.23223580  0.33664289    -0.92600
O41         O  0.79332255  0.19371605  0.19373633    -0.40400
O42         O  0.88728978  0.24436570  0.24753397    -0.77000
O43         O  0.84122285  0.28484692  0.22756438    -0.95700
O44         O  0.84473141  0.33533037  0.28124758    -0.89000
O45         O  0.89931436  0.28700140  0.29984919    -0.91800
C46         C  0.82623231  0.10111027  0.25104558     1.01900
C47         C  0.88834256  0.15372492  0.33695567     1.14800
C48         C  0.74330272  0.24751853  0.28963110     1.05600
O49         O  0.77679720  0.29001254  0.20596483    -0.94000
O50         O  0.81147243  0.38382328  0.25003808    -0.89700
O51         O  0.86390136  0.39253768  0.24561085    -0.82900
C52         C  0.83573692  0.40858942  0.24644212     1.12300
O53         O  0.82551336  0.29337187  0.36607418    -0.96000
Zr54       Zr  0.85669614  0.30290898  0.32693800     1.88900
O55         O  0.92078065  0.36252585  0.28978618    -0.72600
O56         O  0.75334251  0.35207972  0.24735116    -0.51900
O57         O  0.82967201  0.36377944  0.34685105    -0.96600
O58         O  0.89562160  0.28320879  0.36770778    -0.53800
O59         O  0.88114652  0.36860510  0.31492913    -0.73100
C60         C  0.91090618  0.36931578  0.31368207     0.99200
O61         O  0.90082120  0.34545898  0.20897033    -0.62000
O62         O  0.93997482  0.15970212  0.27175231    -0.56800
O63         O  0.94589127  0.30818326  0.25827600    -0.93400
O64         O  0.95481902  0.24273765  0.28010024    -0.91900
O65         O  0.88846637  0.16985040  0.20397190    -0.92200
O66         O  0.84431369  0.22113885  0.17330030    -0.91000
C67         C  0.96424786  0.27727488  0.26924995     1.18000
H68         H  0.86920531  0.14840651  0.26813488     0.34000
H69         H  0.83713663  0.29779810  0.20892160     0.44800
H70         H  0.91996767  0.29373604  0.30986233     0.38400
H71         H  0.79479329  0.27690958  0.31437612     0.34900
H72         H  0.79672171  0.16716267  0.18259804     0.26600
H73         H  0.73525650  0.33485697  0.23773500     0.32600
H74         H  0.81504292  0.37556093  0.33059387     0.38500
H75         H  0.87810958  0.14898886  0.18972590     0.32900
H76         H  0.92725532  0.13263091  0.26981952     0.31800
H77         H  0.95782918  0.24194435  0.33307528     0.33500
H78         H  0.88996594  0.30052809  0.38394647     0.32500
H79         H  0.85931834  0.24569425  0.17289020     0.36500
H80         H  0.90741978  0.31892262  0.19932089     0.29200
H81         H  0.77302059  0.13230178  0.31482865     0.33400
H82         H  0.82396420  0.26142718  0.36807448     0.36300
H83         H  0.94104211  0.16866732  0.25191324     0.28900
H84         H  0.88003938  0.35378398  0.19802256     0.41800
H85         H  0.75719869  0.27295845  0.20723327     0.31800
H86         H  0.77818675  0.18444252  0.20674216     0.39400
H87         H  0.91656309  0.29433422  0.36399763     0.31300
H88         H  0.74748232  0.35915037  0.26636675     0.31400
H89         H  0.78210998  0.16401601  0.34064996     0.31600
C90         C  0.83250216  0.45997299  0.24511433     0.30600
C91         C  0.82955803  0.05013202  0.24981921     0.30600
C92         C  0.85328990  0.48347507  0.26975506    -0.05600
C93         C  0.84347566  0.48402730  0.21919830    -0.06400
C94         C  0.79917525  0.48026336  0.24659958    -0.06300
C95         C  0.85119382  0.02863137  0.27513502    -0.05600
C96         C  0.84393559  0.02942349  0.22421485    -0.06400
C97         C  0.79788967  0.02489881  0.24985473    -0.06300
C98         C  0.87452380  0.04216621  0.29683105    -0.31600
N99         N  0.89130266  0.50674997  0.30372913     0.14900
C100        C  0.87811604  0.47112000  0.28997147    -0.31700
H101        H  0.88661432  0.43872885  0.29351211     0.16800
C102        C  0.86929755  0.04309790  0.21013633    -0.30600
N103        N  0.88289488  0.50950186  0.19594215     0.13600
C104        C  0.86858439  0.47314802  0.20445308    -0.30600
C105        C  0.76684036  0.03576491  0.25325355    -0.30900
N106        N  0.74976612  0.49947169  0.25421945     0.14100
H107        H  0.75779245  0.06846881  0.25547615     0.16700
C108        C  0.76920119  0.46504694  0.25073575    -0.30900
H109        H  0.76246328  0.43166339  0.25277967     0.16700
H110        H  0.87803990  0.44057689  0.20337875     0.16700
H111        H  0.88035000  0.07528864  0.30222657     0.16800
H112        H  0.87821625  0.07593365  0.20998188     0.16700
C113        C  0.98943123  0.04448630  0.15716966     0.30600
C114        C  0.98437530  0.45877115  0.15740696     0.30600
C115        C  0.01609196  0.02083706  0.17698806    -0.05600
C116        C  0.95801132  0.02754368  0.16894141    -0.06400
C117        C  0.98746181  0.01976047  0.12907495    -0.06300
C118        C  0.01333287  0.47920168  0.17633134    -0.05600
C119        C  0.95610343  0.48398875  0.16775805    -0.06400
C120        C  0.98483287  0.47881584  0.12792707    -0.06300
C121        C  0.03239141  0.46717467  0.20145663    -0.31600
N122        N  0.04922156  0.50153771  0.21304313     0.14900
C123        C  0.03778158  0.03439115  0.20011163    -0.31700
H124        H  0.04417442  0.06666681  0.20626480     0.16800
C125        C  0.92789101  0.47314831  0.17748773    -0.30600
N126        N  0.91216227  0.50961828  0.18386887     0.13600
C127        C  0.93018110  0.04255457  0.17962850    -0.30600
C128        C  0.98064382  0.46421972  0.10006761    -0.30900
N129        N  0.97896319  0.99420166  0.08486455     0.14100
H130        H  0.97830724  0.43067341  0.09315252     0.16700
C131        C  0.98264460  0.03104033  0.10074110    -0.30900
H132        H  0.98230297  0.06371542  0.09230856     0.16700
H133        H  0.92263333  0.07585451  0.18166023     0.16700
H134        H  0.03076368  0.43810555  0.21301984     0.16800
H135        H  0.91862104  0.44125043  0.17926408     0.16700
Zr136      Zr  0.14583740  0.18232765  0.24992265     2.17500
O137        O  0.17371876  0.13745167  0.21845265    -0.50700
O138        O  0.14587281  0.11025112  0.27407669    -0.73900
O139        O  0.20391290  0.20112364  0.25355599    -0.80700
O140        O  0.07062748  0.14050581  0.23287767    -0.82500
O141        O  0.21144531  0.26822126  0.27400180    -0.78100
O142        O  0.10700511  0.15915591  0.20663992    -0.89700
O143        O  0.12713743  0.12041572  0.31644430    -0.75700
O144        O  0.15900314  0.21706712  0.29591724    -0.85200
O145        O  0.10171065  0.17111160  0.27609819    -0.84900
O146        O  0.15531021  0.26032571  0.24452241    -0.71600
O147        O  0.10109081  0.21890046  0.22452847    -0.83800
Zr148      Zr  0.07511628  0.31497899  0.28584986     2.26400
Zr149      Zr  0.16336074  0.29574510  0.29092709     2.06300
Zr150      Zr  0.05763777  0.20838223  0.25170140     2.10000
Zr151      Zr  0.11545120  0.20130824  0.32117833     1.78800
O152        O  0.03145252  0.22546996  0.20347615    -0.92600
O153        O  0.16379601  0.19011296  0.35482258    -0.40400
O154        O  0.07447437  0.24052546  0.29424486    -0.77000
O155        O  0.11922084  0.28024335  0.31581544    -0.95700
O156        O  0.12027880  0.32842890  0.26147570    -0.89000
O157        O  0.06652197  0.27975969  0.24118346    -0.91800
C158        C  0.13637050  0.09499122  0.29693383     1.01900
C159        C  0.07881191  0.14374579  0.20867404     1.14800
C160        C  0.22157631  0.23443700  0.26187751     1.05600
O161        O  0.18182629  0.28696164  0.34140563    -0.94000
O162        O  0.15022228  0.37692137  0.29424130    -0.89700
O163        O  0.09732874  0.38711291  0.29632737    -0.82900
C164        C  0.12564700  0.40229414  0.29669216     1.12300
O165        O  0.14578357  0.27293463  0.18107621    -0.96000
Zr166      Zr  0.11117508  0.29279542  0.21639518     1.88900
O167        O  0.04493904  0.35483107  0.24643829    -0.72600
O168        O  0.21011297  0.34258900  0.30098030    -0.51900
O169        O  0.14113346  0.35034172  0.19700304    -0.96600
O170        O  0.07610777  0.27245355  0.17338541    -0.53800
O171        O  0.08298639  0.36000493  0.21856139    -0.73100
C172        C  0.05364136  0.36079770  0.22186460     0.99200
O173        O  0.05783700  0.34246643  0.32940064    -0.62000
O174        O  0.02325897  0.15948968  0.27469288    -0.56800
O175        O  0.01682869  0.30654714  0.28008877    -0.93400
O176        O  0.00789575  0.24165881  0.25735381    -0.91900
O177        O  0.06977906  0.16583372  0.33753888    -0.92200
O178        O  0.10921949  0.22295544  0.36956315    -0.91000
C179        C  0.99841971  0.27669434  0.26808072     1.18000
H180        H  0.09340306  0.14236681  0.27780643     0.34000
H181        H  0.12176656  0.29421873  0.33425168     0.44800
H182        H  0.04659225  0.28618894  0.22982703     0.38400
H183        H  0.17237966  0.26559933  0.23336164     0.34900
H184        H  0.15888829  0.16479032  0.36627634     0.26600
H185        H  0.22721724  0.32466251  0.31165453     0.32600
H186        H  0.14976876  0.36808833  0.21370109     0.38500
H187        H  0.07896758  0.14865942  0.35427456     0.32900
H188        H  0.00123396  0.16192417  0.26466066     0.31800
H189        H  0.00966209  0.23652707  0.20514552     0.33500
H190        H  0.08453893  0.28783481  0.15773186     0.32500
H191        H  0.09021604  0.24235713  0.36751512     0.36500
H192        H  0.04809538  0.31693469  0.33745823     0.29200
H193        H  0.19198527  0.12421870  0.23078245     0.33400
H194        H  0.14183194  0.24153114  0.17751792     0.36300
H195        H  0.03027272  0.12957973  0.27059183     0.28900
H196        H  0.07786992  0.34747685  0.34240805     0.41800
H197        H  0.18081281  0.31664801  0.34945314     0.31800
H198        H  0.18009493  0.17895214  0.34338321     0.39400
H199        H  0.05526373  0.28651878  0.17491135     0.31300
H200        H  0.21755637  0.34853416  0.28247281     0.31400
H201        H  0.18347057  0.15824537  0.20631101     0.31600
C202        C  0.12870377  0.45331733  0.29809976     0.30600
C203        C  0.13322256  0.04409378  0.29904853     0.30600
C204        C  0.10902891  0.47693969  0.27283429    -0.05600
C205        C  0.11667025  0.47796011  0.32361736    -0.06400
C206        C  0.16228980  0.47243503  0.29781520    -0.06300
C207        C  0.11080029  0.02214163  0.27448807    -0.05600
C208        C  0.11988109  0.02474515  0.32532023    -0.06400
C209        C  0.16457908  0.01794327  0.29839424    -0.06300
C210        C  0.08749878  0.03562640  0.25283493    -0.31600
N211        N  0.07307619  0.50107139  0.23732591     0.14900
C212        C  0.08548939  0.46488858  0.25115851    -0.31700
H213        H  0.07746824  0.43226455  0.24651369     0.16800
C214        C  0.09584826  0.04031159  0.34043613    -0.30600
N215        N  0.07698926  0.50537747  0.34638622     0.13600
C216        C  0.09099494  0.46829031  0.33783515    -0.30600
C217        C  0.19546934  0.02755056  0.29413191    -0.30900
N218        N  0.21245292  0.48969546  0.29248873     0.14100
H219        H  0.20478825  0.05976185  0.29138812     0.16700
C220        C  0.19238605  0.45605217  0.29489990    -0.30900
H221        H  0.19898455  0.42237849  0.29314738     0.16700
H222        H  0.08136136  0.43600574  0.33888439     0.16700
H223        H  0.08191547  0.06867947  0.24721069     0.16800
H224        H  0.08764604  0.07361541  0.34081150     0.16700
C225        C  0.48993591  0.30253117  0.15860235     0.30600
C226        C  0.49057645  0.21324671  0.16071967     0.30600
C227        C  0.51738710  0.28146728  0.17890089    -0.05600
C228        C  0.45980014  0.28162927  0.16973449    -0.06400
C229        C  0.49024486  0.27818936  0.13021443    -0.06300
C230        C  0.51868433  0.23668703  0.17933026    -0.05600
C231        C  0.46104176  0.23578302  0.17092749    -0.06400
C232        C  0.49070283  0.23324062  0.13130224    -0.06300
C233        C  0.54268016  0.22620949  0.20141669    -0.31600
N234        N  0.55436935  0.26241174  0.21517779     0.14900
C235        C  0.53820742  0.29629519  0.20230438    -0.31700
H236        H  0.53944686  0.32813341  0.21128110     0.16800
C237        C  0.43534857  0.22199602  0.18358759    -0.30600
N238        N  0.41728177  0.25637569  0.18933349     0.13600
C239        C  0.43142745  0.29309930  0.18073482    -0.30600
C240        C  0.48923060  0.21809050  0.10370957    -0.30900
N241        N  0.48800963  0.25276685  0.08593458     0.14100
H242        H  0.48916520  0.18436109  0.09707467     0.16700
C243        C  0.48771576  0.28951651  0.10189916    -0.30900
H244        H  0.48558446  0.32222169  0.09347916     0.16700
H245        H  0.42149021  0.32520806  0.18236735     0.16700
H246        H  0.55113886  0.19530397  0.20808846     0.16800
H247        H  0.43052647  0.18972362  0.18981144     0.16700
Zr248      Zr  0.64094681  0.44584075  0.25376398     2.17500
O249        O  0.66748303  0.39697593  0.22361331    -0.50700
O250        O  0.64401361  0.37409919  0.27793749    -0.73900
O251        O  0.69835560  0.46677389  0.25238438    -0.80700
O252        O  0.56312088  0.40473555  0.23895361    -0.82500
O253        O  0.70791585  0.03155941  0.27428758    -0.78100
O254        O  0.59962310  0.42399831  0.21226470    -0.89700
O255        O  0.62825123  0.38434768  0.32143884    -0.75700
O256        O  0.65846725  0.48266963  0.29808835    -0.85200
O257        O  0.59981949  0.43366489  0.28344476    -0.84900
O258        O  0.64739482  0.02283136  0.24468954    -0.71600
O259        O  0.59338012  0.48097697  0.23306667    -0.83800
Zr260      Zr  0.57226636  0.07731509  0.29443893     2.26400
Zr261      Zr  0.65989464  0.06159297  0.28957074     2.06300
Zr262      Zr  0.55284569  0.46993421  0.26364860     2.10000
Zr263      Zr  0.61876926  0.46566786  0.32745172     1.78800
O264        O  0.50922820  0.48968598  0.22636330    -0.92600
O265        O  0.66942271  0.45310625  0.35775007    -0.40400
O266        O  0.57513764  0.50394572  0.30423900    -0.77000
O267        O  0.62069079  0.04462554  0.31977069    -0.95700
O268        O  0.61255975  0.09087402  0.26462704    -0.89000
O269        O  0.55809409  0.03990914  0.25000628    -0.91800
C270        C  0.63601030  0.35887252  0.30129914     1.01900
C271        C  0.57141109  0.40866837  0.21453401     1.14800
C272        C  0.71750945  0.49832993  0.26153155     1.05600
O273        O  0.69145840  0.06678305  0.33624210    -0.94000
O274        O  0.64762783  0.14108992  0.29908008    -0.89700
O275        O  0.59507897  0.15064755  0.30314782    -0.82900
C276        C  0.62339600  0.16613321  0.30285342     1.12300
O277        O  0.61862494  0.04081872  0.17529991    -0.96000
Zr278      Zr  0.59946279  0.05282382  0.22088120     1.88900
O279        O  0.53810938  0.11812458  0.25753156    -0.72600
O280        O  0.69427507  0.11560110  0.27167096    -0.51900
O281        O  0.63413390  0.10287717  0.19979083    -0.96600
O282        O  0.55594908  0.03012331  0.18444320    -0.53800
O283        O  0.57858388  0.12066410  0.23365296    -0.73100
C284        C  0.54879066  0.12304274  0.23384087     0.99200
O285        O  0.55765980  0.10247144  0.33969599    -0.62000
O286        O  0.51716839  0.41559822  0.27979657    -0.56800
O287        O  0.51486617  0.06442213  0.28915925    -0.93400
O288        O  0.52142601  0.49758376  0.29818744    -0.91900
O289        O  0.57633091  0.43329004  0.35039851    -0.92200
O290        O  0.62026291  0.48899042  0.37671638    -0.91000
C291        C  0.50297573  0.02680576  0.29155625     1.18000
H292        H  0.59148135  0.40472445  0.28450901     0.34000
H293        H  0.62604902  0.05922772  0.33780657     0.44800
H294        H  0.53712796  0.04738637  0.24031574     0.38400
H295        H  0.66342528  0.02773801  0.23231416     0.34900
H296        H  0.66816769  0.42275741  0.36439723     0.26600
H297        H  0.71581567  0.11175161  0.28257333     0.32600
H298        H  0.64008605  0.12511417  0.21467941     0.38500
H299        H  0.58757626  0.41351459  0.36487591     0.32900
H300        H  0.49537660  0.42298738  0.27052332     0.31800
H301        H  0.49068263  0.49697889  0.23627275     0.33500
H302        H  0.55782045  0.04654576  0.16690145     0.32500
H303        H  0.60440160  0.01113898  0.37603552     0.36500
H304        H  0.53942456  0.08398561  0.34308154     0.29200
H305        H  0.68650513  0.38574997  0.23598339     0.33400
H306        H  0.62981761  0.01235281  0.17739802     0.36300
H307        H  0.52242694  0.38727117  0.27150976     0.28900
H308        H  0.57545935  0.09257727  0.35398880     0.41800
H309        H  0.69703654  0.09797879  0.33837673     0.31800
H310        H  0.68608962  0.45219330  0.34493223     0.39400
H311        H  0.53558418  0.03987532  0.19061732     0.31300
H312        H  0.69649370  0.10670042  0.25196576     0.31400
H313        H  0.67618601  0.41598269  0.20975681     0.31600
C314        C  0.62734031  0.21736656  0.30456655     0.30600
C315        C  0.63247898  0.30812606  0.30317703     0.30600
C316        C  0.60849245  0.24099892  0.27901557    -0.05600
C317        C  0.61562492  0.24328791  0.32962347    -0.06400
C318        C  0.66129568  0.23566137  0.30439897    -0.06300
C319        C  0.61082528  0.28637820  0.27796218    -0.05600
C320        C  0.61763750  0.28943186  0.32893288    -0.06400
C321        C  0.66382707  0.28112454  0.30338416    -0.06300
C322        C  0.59100932  0.29935288  0.25358819    -0.31600
N323        N  0.57673364  0.26351369  0.24043801     0.14900
C324        C  0.58736923  0.22812216  0.25599436    -0.31700
H325        H  0.57977015  0.19536674  0.25157705     0.16800
C326        C  0.59392411  0.30549560  0.34456993    -0.30600
N327        N  0.57920896  0.27154271  0.35564009     0.13600
C328        C  0.59180265  0.23416553  0.34578303    -0.30600
C329        C  0.69474843  0.28957581  0.29838451    -0.30900
N330        N  0.71126798  0.25132546  0.29727866     0.14100
H331        H  0.70413908  0.32138011  0.29454842     0.16700
C332        C  0.69114443  0.21836490  0.30127802    -0.30900
H333        H  0.69749817  0.18443951  0.30049942     0.16700
H334        H  0.58229130  0.20192058  0.34746247     0.16700
H335        H  0.58745337  0.33218577  0.24611617     0.16800
H336        H  0.58632631  0.33899839  0.34578933     0.16700
C337        C  0.47038187  0.29512527  0.39729724     0.30600
C338        C  0.48530449  0.20969121  0.39003629     0.30600
C339        C  0.45031464  0.27167914  0.37291572    -0.05600
C340        C  0.50549451  0.28646326  0.38923347    -0.06400
C341        C  0.46928590  0.26463193  0.42308181    -0.06300
C342        C  0.45655668  0.22849889  0.36978673    -0.05600
C343        C  0.51237928  0.24188064  0.38845067    -0.06400
C344        C  0.47659394  0.22057299  0.41969742    -0.06300
C345        C  0.43384089  0.21381428  0.34782721    -0.31600
N346        N  0.41544167  0.24779451  0.33706393     0.14900
C347        C  0.42560291  0.28360863  0.35211266    -0.31700
H348        H  0.41571854  0.31590956  0.34842211     0.16800
C349        C  0.54224848  0.23510389  0.38197139    -0.30600
N350        N  0.55327300  0.27223932  0.37226619     0.13600
C351        C  0.53133980  0.30461967  0.37658962    -0.30600
C352        C  0.48570988  0.20491299  0.44708458    -0.30900
N353        N  0.48156495  0.23668461  0.46622066     0.14100
H354        H  0.49751895  0.17441219  0.45298587     0.16700
C355        C  0.47262330  0.27346107  0.45173794    -0.30900
H356        H  0.47030666  0.30514319  0.46133446     0.16700
H357        H  0.53271974  0.33776241  0.36935357     0.16700
H358        H  0.43047298  0.18107262  0.34037603     0.16800
H359        H  0.55327392  0.20340950  0.38114730     0.16700
Zr360      Zr  0.32029442  0.43085300  0.30063451     2.17500
O361        O  0.29109255  0.39244471  0.33375502    -0.50700
O362        O  0.31895100  0.35746060  0.27661772    -0.73900
O363        O  0.26236633  0.45243308  0.29519529    -0.80700
O364        O  0.39603170  0.45041258  0.34633862    -0.82500
O365        O  0.25531797  0.01988753  0.27441030    -0.78100
O366        O  0.35627604  0.40321892  0.34514340    -0.89700
O367        O  0.34204964  0.36468412  0.23630222    -0.75700
O368        O  0.30903313  0.46304096  0.25399508    -0.85200
O369        O  0.36555920  0.41388172  0.27679886    -0.84900
O370        O  0.31204970  0.00932241  0.30266353    -0.71600
O371        O  0.36433657  0.47098211  0.32085981    -0.83800
Zr372      Zr  0.39261098  0.05526225  0.26026220     2.26400
Zr373      Zr  0.30351006  0.04310398  0.25608162     2.06300
Zr374      Zr  0.40999875  0.45166248  0.29924686     2.10000
Zr375      Zr  0.35392495  0.44403376  0.23065917     1.78800
O376        O  0.45213796  0.41065188  0.32811669    -0.92600
O377        O  0.30639795  0.43084598  0.19651913    -0.40400
O378        O  0.39601826  0.48307303  0.25609072    -0.77000
O379        O  0.34687529  0.02310012  0.23094306    -0.95700
O380        O  0.34849794  0.07451055  0.28422134    -0.89000
O381        O  0.40202415  0.01707696  0.30412247    -0.91800
C382        C  0.33034270  0.34065696  0.25482709     1.01900
C383        C  0.38383530  0.41796063  0.35712267     1.14800
C384        C  0.24541062  0.48677428  0.28727026     1.05600
O385        O  0.28592372  0.03381707  0.20544001    -0.94000
O386        O  0.31701165  0.12313450  0.25346705    -0.89700
O387        O  0.37030610  0.13027924  0.25241897    -0.82900
C388        C  0.34202914  0.14726184  0.25182373     1.12300
O389        O  0.32329038  0.03491213  0.36500611    -0.96000
Zr390      Zr  0.35875195  0.03960886  0.32853692     1.88900
O391        O  0.42685339  0.09168570  0.29901467    -0.72600
O392        O  0.25674791  0.09009296  0.24416400    -0.51900
O393        O  0.33987526  0.11428566  0.33183128    -0.96600
O394        O  0.37914283  0.01367900  0.37590688    -0.53800
O395        O  0.40580759  0.08193003  0.34009341    -0.73100
C396        C  0.42824165  0.09370442  0.32624422     0.99200
O397        O  0.41189880  0.08158788  0.21743465    -0.62000
O398        O  0.43179605  0.38343047  0.28253187    -0.56800
O399        O  0.45069266  0.04672924  0.27027774    -0.93400
O400        O  0.45943002  0.48999100  0.29697175    -0.91900
O401        O  0.39795121  0.40680153  0.21202775    -0.92200
O402        O  0.35796327  0.46549841  0.18191963    -0.91000
C403        C  0.46862623  0.01896904  0.28520338     1.18000
H404        H  0.37264054  0.38446268  0.27896770     0.34000
H405        H  0.34484946  0.03712401  0.21263504     0.44800
H406        H  0.42156626  0.01927775  0.31703983     0.38400
H407        H  0.29556061  0.01599738  0.31430279     0.34900
H408        H  0.31203410  0.40518071  0.18546509     0.26600
H409        H  0.23987384  0.07172692  0.23367634     0.32600
H410        H  0.34676195  0.12287518  0.35181522     0.38500
H411        H  0.38795794  0.39194599  0.19455601     0.32900
H412        H  0.42255528  0.35923664  0.29239880     0.31800
H413        H  0.47290584  0.42181426  0.32378841     0.33500
H414        H  0.38566899  0.04023085  0.38702110     0.32500
H415        H  0.32699070  0.98774185  0.17216269     0.36500
H416        H  0.42053092  0.05538523  0.20884219     0.29200
H417        H  0.27311958  0.37809589  0.32177380     0.33400
H418        H  0.30584011  0.05607247  0.35927571     0.36300
H419        H  0.42275639  0.38023863  0.26232426     0.28900
H420        H  0.39229241  0.08909978  0.20444279     0.43000
H421        H  0.26761444  0.01361080  0.20441396     0.31800
H422        H  0.29008559  0.41982730  0.20782964     0.39400
H423        H  0.39953465  0.99887755  0.37354402     0.31300
H424        H  0.24881160  0.09751450  0.26230604     0.31400
H425        H  0.28097869  0.41546836  0.34425612     0.31600
C426        C  0.33863886  0.19864365  0.25114848     0.30600
C427        C  0.33334362  0.28963166  0.25274992     0.30600
C428        C  0.35670819  0.22203434  0.27727120    -0.05600
C429        C  0.35135749  0.22409808  0.22657372    -0.06400
C430        C  0.30450584  0.21799079  0.25059179    -0.06300
C431        C  0.35402884  0.26760209  0.27814191    -0.05600
C432        C  0.34882687  0.27030430  0.22748099    -0.06400
C433        C  0.30209476  0.26358749  0.25134148    -0.06300
C434        C  0.37501941  0.28163956  0.30113891    -0.31600
N435        N  0.39036080  0.24638622  0.31401470     0.14900
C436        C  0.37934348  0.20994250  0.29962074    -0.31700
H437        H  0.38803574  0.17723222  0.30419532     0.16800
C438        C  0.37297305  0.28648897  0.21313789    -0.30600
N439        N  0.38920379  0.25302717  0.20291437     0.13600
C440        C  0.37672816  0.21524200  0.21162981    -0.30600
C441        C  0.27107321  0.27361215  0.25494747    -0.30900
N442        N  0.25428069  0.23612517  0.25612154     0.14100
H443        H  0.26171434  0.30599263  0.25777749     0.16700
C444        C  0.27437499  0.20210009  0.25350520    -0.30900
H445        H  0.26792164  0.16861423  0.25554394     0.16700
H446        H  0.38698646  0.18324875  0.20977234     0.16700
H447        H  0.37971787  0.31514551  0.30716395     0.16800
H448        H  0.38043495  0.31993813  0.21287560     0.16700
C449        C  0.41902975  0.33206375  0.40716090     0.24200
C450        C  0.45163741  0.33680266  0.40203078    -0.23900
C451        C  0.46125090  0.37786468  0.39448469     0.19100
C452        C  0.43783312  0.40953466  0.38617254     0.24100
C453        C  0.40483960  0.39777789  0.38131119    -0.23900
C454        C  0.39556965  0.36114607  0.39504736     0.19000
F455        F  0.36415637  0.35097445  0.39404616    -0.13800
F456        F  0.40865542  0.29468242  0.41791215    -0.16200
F457        F  0.44775656  0.44953825  0.37915276    -0.16200
F458        F  0.49240964  0.38612876  0.39251279    -0.13800
C459        C  0.47926940  0.12795596  0.39109195     0.24200
C460        C  0.49246332  0.16439940  0.37945305    -0.23900
C461        C  0.49796121  0.16146488  0.35043925     0.19100
C462        C  0.48009370  0.13260076  0.33234318     0.24100
C463        C  0.45817819  0.10621135  0.34349495    -0.23900
C464        C  0.46225079  0.09837967  0.37292872     0.19000
F465        F  0.44623814  0.06602947  0.38423517    -0.13800
F466        F  0.47800453  0.12408203  0.41920851    -0.16200
F467        F  0.47923187  0.13758353  0.30386311    -0.16200
F468        F  0.51189217  0.19403832  0.33745028    -0.13800
C469        C  0.46764721  0.22131148  0.00900263     0.24200
C470        C  0.48741434  0.23347376  0.49672613    -0.23900
C471        C  0.50629768  0.27969972  0.01263988     0.19100
C472        C  0.50725442  0.27981712  0.04225065     0.24100
C473        C  0.48789878  0.25127296  0.05553028    -0.23900
C474        C  0.46829730  0.22172452  0.03859881     0.19000
F475        F  0.44881334  0.19445834  0.05060393    -0.13800
F476        F  0.45392901  0.17075543  0.49606520    -0.16200
F477        F  0.52764040  0.30720330  0.05805181    -0.16200
F478        F  0.52514144  0.30761778  0.00042207    -0.13800
C479        C  0.48973082  0.37859557  0.17758527     0.24200
C480        C  0.49874724  0.35084224  0.15679601    -0.23900
C481        C  0.52879541  0.36023649  0.14709336     0.19100
C482        C  0.55221608  0.38473152  0.16405293     0.24100
C483        C  0.54562673  0.40090007  0.19018742    -0.23900
C484        C  0.51319069  0.40046337  0.19541940     0.19000
F485        F  0.50490420  0.41181028  0.22086318    -0.13800
F486        F  0.46012351  0.37687633  0.18530778    -0.16200
F487        F  0.58252915  0.38546956  0.15739531    -0.16200
F488        F  0.53884537  0.33758850  0.12536142    -0.13800
C489        C  0.47667430  0.13984588  0.17975442     0.24200
C490        C  0.49276882  0.16344300  0.16083421    -0.23900
C491        C  0.52289300  0.14679151  0.15703632     0.19100
C492        C  0.54129769  0.12838315  0.18056826     0.24100
C493        C  0.52778861  0.12352939  0.20626096    -0.23900
C494        C  0.49434578  0.12348593  0.20442098     0.19000
F495        F  0.47930630  0.10752571  0.22563875    -0.13800
F496        F  0.44591610  0.12736241  0.17212442    -0.16200
F497        F  0.57313794  0.12383908  0.17972830    -0.16200
F498        F  0.53767505  0.15974514  0.13484916    -0.13800
C499        C  0.03855988  0.37333276  0.16976239     0.24200
C500        C  0.02936453  0.36441207  0.19655593    -0.23900
C501        C  0.99655887  0.36491192  0.19911598     0.19100
C502        C  0.97541936  0.38526067  0.17819083     0.24100
C503        C  0.98752984  0.40919370  0.15703243    -0.23900
C504        C  0.01696407  0.39393380  0.14929955     0.19000
F505        F  0.02870599  0.40952831  0.12614380    -0.13800
F506        F  0.06928986  0.36823312  0.16466455    -0.16200
F507        F  0.94374686  0.37889866  0.17739723    -0.16200
F508        F  0.98529699  0.34866306  0.22228455    -0.13800
C509        C  0.99464973  0.12041826  0.17523294     0.24200
C510        C  0.00107883  0.09122651  0.15436995    -0.23900
C511        C  0.03096029  0.09677641  0.14333103     0.19100
C512        C  0.05631651  0.11976278  0.15891060     0.24100
C513        C  0.05191963  0.13790044  0.18505426    -0.23900
C514        C  0.01993726  0.14027087  0.19182921     0.19000
F515        F  0.01337955  0.15454006  0.21738211    -0.13800
F516        F  0.96576158  0.12157830  0.18451922    -0.16200
F517        F  0.08605319  0.11725094  0.15101511    -0.16200
F518        F  0.03854471  0.07221282  0.12139528    -0.13800
C519        C  0.00015844  0.52729666  0.01000640     0.24200
C520        C  0.98208909  0.99719671  0.49422381    -0.23900
C521        C  0.95850159  0.02141927  0.00761868     0.19100
C522        C  0.95822467  0.02155284  0.03704104     0.24100
C523        C  0.97731229  0.99198191  0.05440012    -0.23900
C524        C  0.00003234  0.52743030  0.03938693     0.19000
F525        F  0.01940110  0.55577115  0.05540046    -0.13800
F526        F  0.01930021  0.55569897  0.99853769    -0.16200
F527        F  0.93895688  0.05026037  0.04856499    -0.16200
F528        F  0.93836481  0.04785027  0.49257765    -0.13800
C529        C  0.94731583  0.14599063  0.35362365     0.24200
C530        C  0.91536598  0.14721510  0.36050596    -0.23900
C531        C  0.91047069  0.13166498  0.38710672     0.19100
C532        C  0.93488289  0.10744555  0.40326284     0.24100
C533        C  0.96457765  0.09825634  0.39264983    -0.23900
C534        C  0.97182111  0.12485360  0.37074332     0.19000
F535        F  0.00059885  0.12257864  0.36135478    -0.13800
F536        F  0.95435598  0.15774516  0.32771833    -0.16200
F537        F  0.92640209  0.08570221  0.42580558    -0.16200
F538        F  0.88073217  0.13274775  0.39505093    -0.13800
C539        C  0.96674252  0.36873869  0.33973534     0.24200
C540        C  0.93346881  0.37053739  0.34018325    -0.23900
C541        C  0.92222493  0.37893605  0.36635702     0.19100
C542        C  0.94338899  0.39351195  0.38939616     0.24100
C543        C  0.97358209  0.40828618  0.38406174    -0.23900
C544        C  0.98690551  0.38540820  0.36286720     0.19000
F545        F  0.01824681  0.37438741  0.36659577    -0.13800
F546        F  0.97946385  0.35358024  0.31681635    -0.16200
F547        F  0.93102340  0.40604803  0.41311144    -0.16200
F548        F  0.89059841  0.37864766  0.36884758    -0.13800
C549        C  0.97499738  0.04216016  0.89248361     0.30600
C550        C  0.97802198  0.46079064  0.88710442     0.30600
C551        C  0.94804391  0.01936175  0.87265241    -0.05600
C552        C  0.00595855  0.02361153  0.88080748    -0.06400
C553        C  0.97648617  0.01777637  0.92058628    -0.06300
C554        C  0.94928300  0.48149417  0.86805688    -0.05600
C555        C  0.00601156  0.48612248  0.87733427    -0.06400
C556        C  0.97708048  0.48030527  0.91666717    -0.06300
C557        C  0.93091942  0.47008562  0.84259161    -0.31600
N558        N  0.91393707  0.50461594  0.83124557     0.14900
C559        C  0.92577892  0.03287496  0.84993599    -0.31700
H560        H  0.92090856  0.06507355  0.84264853     0.16800
C561        C  0.03337623  0.47422214  0.86682442    -0.30600
N562        N  0.04888764  0.50979986  0.85957926     0.13600
C563        C  0.03398085  0.03744799  0.87036316    -0.30600
C564        C  0.98060517  0.46506401  0.94426406    -0.30900
N565        N  0.97906725  0.99278643  0.96465226     0.14100
H566        H  0.98388839  0.43149102  0.95084363     0.16700
C567        C  0.97827070  0.02938902  0.94875701    -0.30900
H568        H  0.97883388  0.06226552  0.95706995     0.16700
H569        H  0.04252956  0.07022016  0.86921411     0.16700
H570        H  0.93283237  0.44108086  0.83081188     0.16800
H571        H  0.04185209  0.44186442  0.86457033     0.16700
Zr572      Zr  0.82209169  0.18225473  0.79790192     2.17500
O573        O  0.79455776  0.13276497  0.82633149    -0.50700
O574        O  0.82060205  0.10946779  0.77382299    -0.73900
O575        O  0.76501515  0.20474777  0.79894043    -0.80700
O576        O  0.89826757  0.13952161  0.81429851    -0.82500
O577        O  0.75695835  0.27080602  0.77753955    -0.78100
O578        O  0.86168416  0.16007175  0.84044046    -0.89700
O579        O  0.83879749  0.11721890  0.73115900    -0.75700
O580        O  0.80674670  0.21582596  0.75208591    -0.85200
O581        O  0.86495356  0.16907719  0.77031849    -0.84900
O582        O  0.81417676  0.26066472  0.80398641    -0.71600
O583        O  0.86789877  0.21818694  0.82204694    -0.83800
Zr584      Zr  0.89066054  0.31233794  0.75828643     2.26400
Zr585      Zr  0.80326956  0.29470727  0.75736651     2.06300
Zr586      Zr  0.90968650  0.20602400  0.79324842     2.10000
Zr587      Zr  0.84887717  0.19814031  0.72527693     1.78800
O588        O  0.94028480  0.22442510  0.83938893    -0.92600
O589        O  0.79731411  0.18599317  0.69645640    -0.40400
O590        O  0.89110010  0.23704785  0.75062769    -0.77000
O591        O  0.84545812  0.27751243  0.73023229    -0.95700
O592        O  0.84757093  0.32719361  0.78505604    -0.89000
O593        O  0.90271946  0.27856426  0.80350260    -0.91800
C594        C  0.82966460  0.09284580  0.75102031     1.01900
C595        C  0.88981803  0.14394559  0.83846579     1.14800
C596        C  0.74747640  0.23861675  0.79112112     1.05600
O597        O  0.78177795  0.28248221  0.70780839    -0.94000
O598        O  0.81474897  0.37559045  0.75227311    -0.89700
O599        O  0.86750142  0.38512728  0.74993529    -0.82900
C600        C  0.83909209  0.40066969  0.74959376     1.12300
O601        O  0.82982726  0.27429014  0.86898803    -0.96000
Zr602      Zr  0.85974806  0.29275258  0.83023105     1.88900
O603        O  0.92302606  0.35420892  0.79522024    -0.72600
O604        O  0.75643630  0.34240002  0.74875170    -0.51900
O605        O  0.83111355  0.34838488  0.85361723    -0.96600
O606        O  0.90052079  0.27635686  0.87033147    -0.53800
O607        O  0.88360185  0.36039287  0.82094978    -0.73100
C608        C  0.91327077  0.36185643  0.81911626     0.99200
O609        O  0.90462456  0.34176990  0.71408631    -0.62000
O610        O  0.94582976  0.15256990  0.77593265    -0.56800
O611        O  0.94819257  0.30307802  0.76118200    -0.93400
O612        O  0.95751556  0.23734101  0.78249831    -0.91900
O613        O  0.89046913  0.16080514  0.70328897    -0.92200
O614        O  0.85167670  0.21994266  0.67641347    -0.91000
C615        C  0.96653884  0.27230219  0.77186203     1.18000
H616        H  0.87316398  0.14002210  0.76919058     0.34000
H617        H  0.84173815  0.29106946  0.71175211     0.44800
H618        H  0.92319496  0.28587994  0.81379224     0.38400
H619        H  0.79835738  0.26705097  0.81631665     0.34900
H620        H  0.80224471  0.16701902  0.68067969     0.26600
H621        H  0.73846877  0.32451159  0.73959113     0.32600
H622        H  0.81145827  0.35405589  0.84022053     0.38500
H623        H  0.90268815  0.14407130  0.71891971     0.32900
H624        H  0.93316095  0.12557066  0.77267087     0.31800
H625        H  0.96193979  0.23309278  0.83572590     0.33500
H626        H  0.89447211  0.29344125  0.88652352     0.32500
H627        H  0.87039641  0.23947628  0.67759272     0.36500
H628        H  0.91657372  0.31802984  0.70595313     0.29200
H629        H  0.77567598  0.12234894  0.81348714     0.33400
H630        H  0.83930545  0.24642075  0.87648283     0.36300
H631        H  0.94877011  0.16234022  0.75663013     0.28900
H632        H  0.88410279  0.34368873  0.70130645     0.41800
H633        H  0.76235188  0.26483912  0.70858756     0.31800
H634        H  0.78539422  0.16687304  0.70802073     0.39400
H635        H  0.92062695  0.28947476  0.86604174     0.31300
H636        H  0.75065333  0.35031472  0.76766171     0.31400
H637        H  0.78568705  0.15135157  0.84050566     0.31600
C638        C  0.83543356  0.45174121  0.74742244     0.30600
C639        C  0.83235885  0.04159136  0.74943245     0.30600
C640        C  0.85351183  0.47688727  0.77288409    -0.05600
C641        C  0.84879907  0.47494641  0.72223011    -0.06400
C642        C  0.80136214  0.47110853  0.74590414    -0.06300
C643        C  0.85328060  0.01989666  0.77502103    -0.05600
C644        C  0.84736271  0.02084005  0.72422481    -0.06400
C645        C  0.80057439  0.01622924  0.74887177    -0.06300
C646        C  0.87487662  0.03352672  0.79790090    -0.31600
N647        N  0.88955993  0.50329718  0.80746879     0.14900
C648        C  0.87729877  0.46633032  0.79457155    -0.31700
H649        H  0.88592506  0.43409082  0.79960498     0.16800
C650        C  0.87248362  0.03511358  0.71014650    -0.30600
N651        N  0.88890079  0.50100400  0.69990962     0.13600
C652        C  0.87528106  0.46439761  0.70896487    -0.30600
C653        C  0.76953016  0.02705314  0.75254603    -0.30900
N654        N  0.75115337  0.49001824  0.75110277     0.14100
H655        H  0.76062002  0.05976491  0.75502461     0.16700
C656        C  0.77121432  0.45566290  0.74932988    -0.30900
H657        H  0.76485831  0.42240874  0.75252890     0.16700
H658        H  0.88555913  0.43218437  0.70863978     0.16700
H659        H  0.87999492  0.06669722  0.80381694     0.16800
H660        H  0.88065804  0.06826808  0.70950476     0.16700
C661        C  0.99202301  0.04004825  0.65654308     0.30600
C662        C  0.98966979  0.45544136  0.65771698     0.30600
C663        C  0.01909968  0.01686207  0.67598412    -0.05600
C664        C  0.96102922  0.02226641  0.66861545    -0.06400
C665        C  0.99004171  0.01569503  0.62842569    -0.06300
C666        C  0.01813102  0.47751908  0.67613601    -0.05600
C667        C  0.96104297  0.47893602  0.66873728    -0.06400
C668        C  0.98923385  0.47540019  0.62803992    -0.06300
C669        C  0.03671070  0.46630460  0.70151988    -0.31600
N670        N  0.05252918  0.50113466  0.71338479     0.14900
C671        C  0.04018688  0.03108712  0.69928831    -0.31700
H672        H  0.04559107  0.06365781  0.70558894     0.16800
C673        C  0.93472495  0.46657228  0.68117353    -0.30600
N674        N  0.91778522  0.50219905  0.68719742     0.13600
C675        C  0.93351706  0.03638512  0.68015643    -0.30600
C676        C  0.98680033  0.46030794  0.60028394    -0.30900
N677        N  0.98394890  0.99139644  0.58406425     0.14100
H678        H  0.98603099  0.42654581  0.59369851     0.16700
C679        C  0.98646363  0.02775148  0.60034991    -0.30900
H680        H  0.98614287  0.06068223  0.59232653     0.16700
H681        H  0.92610442  0.06946918  0.68322356     0.16700
H682        H  0.03494913  0.43735714  0.71312284     0.16800
H683        H  0.92823658  0.43422353  0.68606752     0.16700
Zr684      Zr  0.14604597  0.17977670  0.75089788     2.17500
O685        O  0.17463553  0.13189733  0.72169224    -0.50700
O686        O  0.14585961  0.10799584  0.77518849    -0.73900
O687        O  0.20414656  0.19785506  0.75380922    -0.80700
O688        O  0.06888396  0.13778987  0.73306661    -0.82500
O689        O  0.21224596  0.26530356  0.77357750    -0.78100
O690        O  0.10633548  0.15717898  0.70786812    -0.89700
O691        O  0.12724634  0.11775677  0.81763457    -0.75700
O692        O  0.15965894  0.21478779  0.79676854    -0.85200
O693        O  0.10213205  0.16933381  0.77721480    -0.84900
O694        O  0.15563771  0.25756487  0.74499165    -0.71600
O695        O  0.10189047  0.21643156  0.72480066    -0.83800
Zr696      Zr  0.07606360  0.31339722  0.78746702     2.26400
Zr697      Zr  0.16442007  0.29338452  0.79131482     2.06300
Zr698      Zr  0.05846140  0.20603482  0.75198831     2.10000
Zr699      Zr  0.11663971  0.19870994  0.82263633     1.78800
O700        O  0.03170746  0.22405039  0.70427427    -0.92600
O701        O  0.16541179  0.18667662  0.85550271    -0.40400
O702        O  0.07071408  0.23709286  0.79797586    -0.77000
O703        O  0.12057343  0.27775188  0.81661850    -0.95700
O704        O  0.12103010  0.32616538  0.76247054    -0.89000
O705        O  0.06702399  0.27807213  0.74250276    -0.91800
C706        C  0.13643387  0.09257117  0.79800328     1.01900
C707        C  0.07794505  0.14161972  0.70922737     1.14800
C708        C  0.22211651  0.23101937  0.76169165     1.05600
O709        O  0.18477708  0.28552750  0.84144328    -0.94000
O710        O  0.15048019  0.37479015  0.79512833    -0.89700
O711        O  0.09786756  0.38565290  0.79830599    -0.82900
C712        C  0.12616478  0.40059147  0.79812354     1.12300
O713        O  0.14325894  0.27445667  0.67935259    -0.96000
Zr714      Zr  0.11143259  0.29079517  0.71731097     1.88900
O715        O  0.04599579  0.35519697  0.74939283    -0.72600
O716        O  0.21145956  0.33992878  0.80049627    -0.51900
O717        O  0.14365610  0.34560440  0.69781653    -0.96600
O718        O  0.07419762  0.27424134  0.67479922    -0.53800
O719        O  0.08655380  0.35892596  0.72485653    -0.73100
C720        C  0.05669425  0.36052566  0.72572402     0.99200
O721        O  0.05686222  0.33983110  0.83050905    -0.62000
O722        O  0.02051603  0.15712252  0.77019530    -0.56800
O723        O  0.01820253  0.30321781  0.78143558    -0.93400
O724        O  0.00955322  0.23753679  0.75954693    -0.91900
O725        O  0.07287765  0.16198362  0.84127099    -0.92200
O726        O  0.10792477  0.22358023  0.86984083    -0.91000
C727        C  0.00017811  0.27248382  0.77022826     1.18000
H728        H  0.09377602  0.14072221  0.77839370     0.34000
H729        H  0.12363411  0.29177676  0.83498790     0.44800
H730        H  0.04696675  0.28547059  0.73141627     0.38400
H731        H  0.17249212  0.26247346  0.73354049     0.34900
H732        H  0.16907776  0.21411235  0.86639508     0.26600
H733        H  0.22879892  0.32211684  0.81093454     0.32600
H734        H  0.15270845  0.36320005  0.71444795     0.38500
H735        H  0.08333707  0.14406382  0.85717038     0.32900
H736        H  0.02963773  0.12748314  0.76917565     0.31800
H737        H  0.01019843  0.23561218  0.70650825     0.33500
H738        H  0.08120340  0.29196159  0.65945486     0.32500
H739        H  0.08889440  0.24286522  0.86648839     0.36500
H740        H  0.04956080  0.31331662  0.83944115     0.29200
H741        H  0.19277114  0.11974031  0.73472982     0.33400
H742        H  0.14694404  0.24262736  0.68057492     0.36300
H743        H  0.02259349  0.16354352  0.79080410     0.28900
H744        H  0.07633677  0.34866996  0.84318810     0.41800
H745        H  0.20382390  0.26644713  0.84164783     0.31800
H746        H  0.15922535  0.16555160  0.86943991     0.39400
H747        H  0.05327905  0.28663159  0.67789740     0.31300
H748        H  0.21846165  0.34571270  0.78178855     0.31400
H749        H  0.18454291  0.15137342  0.70883937     0.31600
C750        C  0.12957424  0.45184726  0.79960782     0.30600
C751        C  0.13359136  0.04172281  0.79987986     0.30600
C752        C  0.11038211  0.47604658  0.77434667    -0.05600
C753        C  0.11764691  0.47723613  0.82501391    -0.06400
C754        C  0.16344736  0.46992217  0.79928762    -0.06300
C755        C  0.11174774  0.01990211  0.77494540    -0.05600
C756        C  0.11973404  0.02175486  0.82575768    -0.06400
C757        C  0.16531263  0.01610273  0.79949987    -0.06300
C758        C  0.08890263  0.03326068  0.75286179    -0.31600
N759        N  0.07565447  0.50087234  0.73817200     0.14900
C760        C  0.08712368  0.46459817  0.75245006    -0.31700
H761        H  0.07865122  0.43226498  0.74795909     0.16800
C762        C  0.09422457  0.03604926  0.83957171    -0.30600
N763        N  0.07786188  0.50696266  0.84700311     0.13600
C764        C  0.09112150  0.46913886  0.83854668    -0.30600
C765        C  0.19631909  0.02597668  0.79553897    -0.30900
N766        N  0.21326764  0.48519554  0.79170443     0.14100
H767        H  0.20555026  0.05827102  0.79289011     0.16700
C768        C  0.19281940  0.45238615  0.79494484    -0.30900
H769        H  0.19851975  0.41856435  0.79249478     0.16700
H770        H  0.08039149  0.43743401  0.83903402     0.16700
H771        H  0.08332232  0.06628332  0.74707490     0.16800
H772        H  0.08513417  0.06897997  0.83946443     0.16700
C773        C  0.49215028  0.29237500  0.65887663     0.30600
C774        C  0.49311899  0.20325614  0.66260545     0.30600
C775        C  0.51944876  0.27217836  0.67993293    -0.05600
C776        C  0.46182343  0.27187906  0.66984568    -0.06400
C777        C  0.49322234  0.26670027  0.63091945    -0.06300
C778        C  0.52088367  0.22744298  0.68102787    -0.05600
C779        C  0.46319012  0.22616961  0.67189322    -0.06400
C780        C  0.49389580  0.22182646  0.63297132    -0.06300
C781        C  0.54610582  0.21758039  0.70207958    -0.31600
N782        N  0.55813248  0.25410557  0.71512388     0.14900
C783        C  0.54138827  0.28768227  0.70238714    -0.31700
H784        H  0.54325565  0.31975968  0.71083571     0.16800
C785        C  0.43697309  0.21291215  0.68408089    -0.30600
N786        N  0.41867971  0.24753407  0.68892428     0.13600
C787        C  0.43299432  0.28382099  0.67992538    -0.30600
C788        C  0.49307724  0.20502165  0.60587855    -0.30900
N789        N  0.49177766  0.23850709  0.58720174     0.14100
H790        H  0.49343965  0.17090023  0.60025692     0.16700
C791        C  0.49086140  0.27619428  0.60227949    -0.30900
H792        H  0.48809490  0.30833277  0.59304255     0.16700
H793        H  0.42274765  0.31593151  0.68052887     0.16700
H794        H  0.55572837  0.18695129  0.70817183     0.16800
H795        H  0.43175345  0.18085414  0.69040264     0.16700
Zr796      Zr  0.64285944  0.43763486  0.75125849     2.17500
O797        O  0.66700289  0.39358770  0.71681332    -0.50700
O798        O  0.64806033  0.36641988  0.77592906    -0.73900
O799        O  0.70032908  0.45660052  0.75030388    -0.80700
O800        O  0.56524266  0.39562580  0.73795799    -0.82500
O801        O  0.71076624  0.02319625  0.77421486    -0.78100
O802        O  0.60107213  0.41467209  0.71061580    -0.89700
O803        O  0.63221441  0.37736537  0.81935747    -0.75700
O804        O  0.66070286  0.47514032  0.79532804    -0.85200
O805        O  0.60214409  0.42531364  0.78134009    -0.84900
O806        O  0.64947418  0.01537959  0.74527133    -0.71600
O807        O  0.59506468  0.47250613  0.73066260    -0.83800
Zr808      Zr  0.57566139  0.07079755  0.79664430     2.26400
Zr809      Zr  0.66306654  0.05345120  0.79031151     2.06300
Zr810      Zr  0.55490549  0.46148812  0.76155681     2.10000
Zr811      Zr  0.62142261  0.45841421  0.82489910     1.78800
O812        O  0.51034889  0.48085911  0.72503133    -0.92600
O813        O  0.67609546  0.45300582  0.84914671    -0.40400
O814        O  0.57742349  0.49615669  0.80167670    -0.77000
O815        O  0.62418378  0.03713748  0.82109922    -0.95700
O816        O  0.61550842  0.08336807  0.76603407    -0.89000
O817        O  0.56020464  0.03393412  0.75220201    -0.91800
C818        C  0.64036134  0.35161295  0.79950732     1.01900
C819        C  0.57301742  0.39943814  0.71337696     1.14800
C820        C  0.71889324  0.48919621  0.75821584     1.05600
O821        O  0.69384974  0.05643055  0.83740487    -0.94000
O822        O  0.65136900  0.13350190  0.79900588    -0.89700
O823        O  0.59918534  0.14381308  0.80418391    -0.82900
C824        C  0.62743112  0.15893686  0.80311771     1.12300
O825        O  0.61688863  0.03328418  0.67543139    -0.96000
Zr826      Zr  0.60102512  0.04569152  0.72230723     1.88900
O827        O  0.54151222  0.11330362  0.76106090    -0.72600
O828        O  0.69963111  0.10660714  0.77443908    -0.51900
O829        O  0.63492836  0.09393745  0.69886129    -0.96600
O830        O  0.55566512  0.02113774  0.68820360    -0.53800
O831        O  0.58166086  0.11350381  0.73685705    -0.73100
C832        C  0.55194039  0.11711551  0.73723983     0.99200
O833        O  0.56246739  0.09840184  0.84183878    -0.62000
O834        O  0.52194565  0.40209091  0.77534263    -0.56800
O835        O  0.51798403  0.05862787  0.79228691    -0.93400
O836        O  0.52364709  0.48968477  0.79623806    -0.91900
O837        O  0.57904549  0.42884920  0.84925052    -0.92200
O838        O  0.62317372  0.47300882  0.87560872    -0.91000
C839        C  0.50529298  0.02139618  0.79447463     1.18000
H840        H  0.59449363  0.39630120  0.78284481     0.34000
H841        H  0.62997168  0.05148723  0.83916328     0.44800
H842        H  0.53902820  0.04203283  0.74307394     0.38400
H843        H  0.66529679  0.02005919  0.73269948     0.34900
H844        H  0.67938848  0.47913446  0.86143030     0.26600
H845        H  0.72082223  0.10148302  0.78569963     0.32600
H846        H  0.65128402  0.10428887  0.71429615     0.38500
H847        H  0.58911369  0.40451599  0.86082302     0.32900
H848        H  0.53365597  0.39085762  0.79333048     0.31800
H849        H  0.49155053  0.48514308  0.73516145     0.33500
H850        H  0.55676634  0.03565294  0.66983138     0.32500
H851        H  0.60854660  0.00576984  0.87692430     0.36500
H852        H  0.54814733  0.07626052  0.84833279     0.29200
H853        H  0.68670866  0.38091846  0.72738761     0.33400
H854        H  0.61748863  0.00119894  0.67347109     0.36300
H855        H  0.50232337  0.41556863  0.78083405     0.28900
H856        H  0.58260017  0.09567208  0.85507441     0.41800
H857        H  0.70304206  0.08604745  0.83877003     0.31800
H858        H  0.67581715  0.42838164  0.86247451     0.39400
H859        H  0.53571966  0.03200069  0.69461791     0.31300
H860        H  0.70224174  0.09878814  0.75463016     0.31400
H861        H  0.67461141  0.41473454  0.70358673     0.31600
C862        C  0.63150952  0.21016712  0.80432056     0.30600
C863        C  0.63721168  0.30088105  0.80194668     0.30600
C864        C  0.61354304  0.23337153  0.77817897    -0.05600
C865        C  0.61927318  0.23701954  0.82874777    -0.06400
C866        C  0.66556319  0.22805561  0.80475444    -0.06300
C867        C  0.61615501  0.27865766  0.77664676    -0.05600
C868        C  0.62176729  0.28306911  0.82744805    -0.06400
C869        C  0.66841014  0.27352311  0.80336990    -0.06300
C870        C  0.59617792  0.29145997  0.75232150    -0.31600
N871        N  0.58150730  0.25556008  0.73967412     0.14900
C872        C  0.59206448  0.22043494  0.75551432    -0.31700
H873        H  0.58367880  0.18798521  0.75187263     0.16800
C874        C  0.59837142  0.30037971  0.84264417    -0.30600
N875        N  0.58319222  0.26740121  0.85409293     0.13600
C876        C  0.59519024  0.22914669  0.84495368    -0.30600
C877        C  0.69956981  0.28147176  0.79939280    -0.30900
N878        N  0.71573521  0.24291187  0.79883936     0.14100
H879        H  0.70933516  0.31305678  0.79558738     0.16700
C880        C  0.69536221  0.21024037  0.80252571    -0.30900
H881        H  0.70152832  0.17623607  0.80192595     0.16700
H882        H  0.58506642  0.19738689  0.84724796     0.16700
H883        H  0.59243023  0.32424846  0.74478254     0.16800
H884        H  0.59103945  0.33401248  0.84312507     0.16700
C885        C  0.47439972  0.30124490  0.89276071     0.30600
C886        C  0.48663212  0.21394111  0.89043372     0.30600
C887        C  0.45236207  0.27501882  0.87079014    -0.05600
C888        C  0.50848200  0.28868542  0.88399136    -0.06400
C889        C  0.47427030  0.27543951  0.92070117    -0.06300
C890        C  0.45764137  0.23121079  0.86991494    -0.05600
C891        C  0.51414245  0.24370301  0.88541091    -0.06400
C892        C  0.48014698  0.23074709  0.91971915    -0.06300
C893        C  0.43443848  0.21479235  0.84884711    -0.31600
N894        N  0.41626429  0.24806193  0.83661262     0.14900
C895        C  0.42725283  0.28509048  0.84981408    -0.31700
H896        H  0.41785445  0.31708689  0.84449380     0.16800
C897        C  0.54435634  0.23466800  0.88028942    -0.30600
N898        N  0.55670000  0.27031193  0.86982803     0.13600
C899        C  0.53566404  0.30431593  0.87244534    -0.30600
C900        C  0.48744098  0.21754354  0.94777565    -0.30900
N901        N  0.48399038  0.25187093  0.96522002     0.14100
H902        H  0.49679653  0.18627867  0.95529635     0.16700
C903        C  0.47715750  0.28762128  0.94893310    -0.30900
H904        H  0.47502141  0.32034838  0.95701902     0.16700
H905        H  0.53896796  0.33692875  0.86504546     0.16700
H906        H  0.43088425  0.18148161  0.84270915     0.16800
H907        H  0.55527309  0.20270481  0.88154946     0.16700
Zr908      Zr  0.32000216  0.42534113  0.79424322     2.17500
O909        O  0.29903410  0.39655768  0.83566317    -0.50700
O910        O  0.31716029  0.35195212  0.77182266    -0.73900
O911        O  0.26167562  0.44508797  0.78966290    -0.80700
O912        O  0.39402672  0.45283450  0.83329205    -0.82500
O913        O  0.25688760  0.01866088  0.77695244    -0.78100
O914        O  0.35812901  0.40251609  0.83682373    -0.89700
O915        O  0.34109817  0.35866883  0.73197672    -0.75700
O916        O  0.30590822  0.45828633  0.74862706    -0.85200
O917        O  0.36521854  0.40589119  0.77025547    -0.84900
O918        O  0.31293294  0.00405077  0.80448596    -0.71600
O919        O  0.36040630  0.47661804  0.79142362    -0.83800
Zr920      Zr  0.39460908  0.05167022  0.76380456     2.26400
Zr921      Zr  0.30528521  0.03891157  0.75821469     2.06300
Zr922      Zr  0.41086819  0.44405976  0.78849500     2.10000
Zr923      Zr  0.35064972  0.43884018  0.72483831     1.78800
O924        O  0.43263478  0.37724636  0.81088499    -0.92600
O925        O  0.29983987  0.42755552  0.69461395    -0.40400
O926        O  0.39467026  0.47832015  0.74741098    -0.77000
O927        O  0.34929210  0.01971614  0.73367261    -0.95700
O928        O  0.34994520  0.06971648  0.78739005    -0.89000
O929        O  0.40353956  0.01293720  0.80738237    -0.91800
C930        C  0.32956320  0.33486563  0.75080289     1.01900
C931        C  0.38527177  0.42025491  0.84577458     1.14800
C932        C  0.24567364  0.48129675  0.78499091     1.05600
O933        O  0.28735416  0.02777763  0.70780582    -0.94000
O934        O  0.31843244  0.11853782  0.75496849    -0.89700
O935        O  0.37186927  0.12600646  0.75488431    -0.82900
C936        C  0.34342366  0.14262013  0.75349413     1.12300
O937        O  0.32521659  0.02172161  0.86829009    -0.96000
Zr938      Zr  0.35930754  0.03301713  0.83136349     1.88900
O939        O  0.42727431  0.08798358  0.80396066    -0.72600
O940        O  0.25900434  0.08622929  0.74469681    -0.51900
O941        O  0.33601638  0.10398964  0.83957387    -0.96600
O942        O  0.38422027  0.00410454  0.87672478    -0.53800
O943        O  0.40383440  0.07886116  0.84374666    -0.73100
C944        C  0.42695437  0.09102473  0.83103658     0.99200
O945        O  0.41456688  0.07967434  0.72170798    -0.62000
O946        O  0.43501147  0.40874149  0.75031292    -0.56800
O947        O  0.45285471  0.04297359  0.77370724    -0.93400
O948        O  0.46173767  0.47969294  0.79363449    -0.91900
O949        O  0.38899976  0.40058189  0.69936596    -0.92200
O950        O  0.35288510  0.46201767  0.67610171    -0.91000
C951        C  0.47058100  0.01491665  0.78860960     1.18000
H952        H  0.37372788  0.37682100  0.77271247     0.34000
H953        H  0.34737635  0.03419151  0.71551034     0.44800
H954        H  0.42281941  0.01581267  0.82045684     0.38400
H955        H  0.29664387  0.01073646  0.81631620     0.34900
H956        H  0.30529526  0.40943144  0.67862675     0.26600
H957        H  0.24222620  0.06771812  0.73420106     0.32600
H958        H  0.34958522  0.12538218  0.83132227     0.38500
H959        H  0.37577668  0.38193830  0.68539664     0.32900
H960        H  0.45267931  0.42806593  0.74660675     0.31800
H961        H  0.45613035  0.37997697  0.81167809     0.33500
H962        H  0.38564924  0.02913359  0.89002837     0.32500
H963        H  0.33376964  0.98584468  0.67371981     0.36500
H964        H  0.42265063  0.05366421  0.71248183     0.29200
H965        H  0.27966120  0.38022920  0.82780837     0.33400
H966        H  0.31882161  0.99078068  0.86640385     0.36300
H967        H  0.44578332  0.38221725  0.75862666     0.28900
H968        H  0.39515753  0.08848389  0.70887114     0.43000
H969        H  0.28879217  0.05682863  0.69915959     0.31800
H970        H  0.28766243  0.40761210  0.70542444     0.39400
H971        H  0.40664294  0.99814044  0.87385397     0.31300
H972        H  0.25058419  0.09448552  0.76247668     0.31400
H973        H  0.29071374  0.42234342  0.84495804     0.31600
C974        C  0.33966589  0.19364484  0.75164454     0.30600
C975        C  0.33381744  0.28418732  0.75046873     0.30600
C976        C  0.35775619  0.21861822  0.77712280    -0.05600
C977        C  0.35223126  0.21733815  0.72625357    -0.06400
C978        C  0.30530180  0.21275032  0.75066586    -0.06300
C979        C  0.35485012  0.26414505  0.77665309    -0.05600
C980        C  0.34939665  0.26347501  0.72578986    -0.06400
C981        C  0.30272091  0.25819177  0.74991900    -0.06300
C982        C  0.37580961  0.27958451  0.79940556    -0.31600
N983        N  0.39120994  0.24519187  0.81346140     0.14900
C984        C  0.38030908  0.20791051  0.79998981    -0.31700
H985        H  0.38905280  0.17550736  0.80552002     0.16800
C986        C  0.37375022  0.27886911  0.71138051    -0.30600
N987        N  0.39029964  0.24489224  0.70216337     0.13600
C988        C  0.37789197  0.20766354  0.71177548    -0.30600
C989        C  0.27166254  0.26883745  0.75319320    -0.30900
N990        N  0.25486257  0.23176829  0.75572457     0.14100
H991        H  0.26227326  0.30147682  0.75487673     0.16700
C992        C  0.27511901  0.19742700  0.75431597    -0.30900
H993        H  0.26883937  0.16427764  0.75778776     0.16700
H994        H  0.38844214  0.17566834  0.71094740     0.16700
H995        H  0.38046536  0.31344996  0.80443848     0.16800
H996        H  0.38115337  0.31230639  0.71053249     0.16700
C997        C  0.42550462  0.34435045  0.90179026     0.24200
C998        C  0.45745824  0.34529743  0.89460629    -0.23900
C999        C  0.46629368  0.38191760  0.88032631     0.19100
C1000       C  0.44263123  0.41105004  0.86824894     0.24100
C1001       C  0.40957397  0.40151832  0.86819407    -0.23900
C1002       C  0.40151283  0.37027054  0.88708365     0.19000
F1003       F  0.37037138  0.36155945  0.88911190    -0.13800
F1004       F  0.41570477  0.31176587  0.91772535    -0.16200
F1005       F  0.45211869  0.44502251  0.85329589    -0.16200
F1006       F  0.49695815  0.38745010  0.87558130    -0.13800
C1007       C  0.47367672  0.13531058  0.89627715     0.24200
C1008       C  0.49157677  0.16624529  0.88356570    -0.23900
C1009       C  0.49860375  0.15675483  0.85553300     0.19100
C1010       C  0.47999922  0.12725102  0.83858606     0.24100
C1011       C  0.45538628  0.10607094  0.84967261    -0.23900
C1012       C  0.45594057  0.10489918  0.87939861     0.19000
F1013       F  0.43598201  0.07891458  0.89186338    -0.13800
F1014       F  0.46771067  0.13919617  0.92342137    -0.16200
F1015       F  0.48203248  0.12647168  0.81031612    -0.16200
F1016       F  0.51603059  0.18363135  0.84120984    -0.13800
C1017       C  0.47233035  0.20126649  0.51103092     0.24200
C1018       C  0.48642643  0.25053416  0.99575200    -0.23900
C1019       C  0.50596955  0.26497895  0.51270479     0.19100
C1020       C  0.50813813  0.26575459  0.54234369     0.24100
C1021       C  0.49160153  0.23511252  0.55676949    -0.23900
C1022       C  0.47447728  0.20192189  0.54079372     0.19000
F1023       F  0.45842982  0.17142442  0.55375563    -0.13800
F1024       F  0.44756814  0.19369379  0.99308062    -0.16200
F1025       F  0.52669610  0.29639692  0.55697547    -0.16200
F1026       F  0.52196040  0.29522054  0.49946460    -0.13800
C1027       C  0.49123528  0.36851808  0.67767797     0.24200
C1028       C  0.50014331  0.34092626  0.65666265    -0.23900
C1029       C  0.52976695  0.35114476  0.64648994     0.19100
C1030       C  0.55304728  0.37638569  0.66302908     0.24100
C1031       C  0.54686059  0.39198344  0.68939340    -0.23900
C1032       C  0.51467013  0.39090297  0.69517583     0.19000
F1033       F  0.50671830  0.40241198  0.72074301    -0.13800
F1034       F  0.46189101  0.36643065  0.68590112    -0.16200
F1035       F  0.58299668  0.37868610  0.65564432    -0.16200
F1036       F  0.53957373  0.32925370  0.62437169    -0.13800
C1037       C  0.47940688  0.13143912  0.68350026     0.24200
C1038       C  0.49530888  0.15355395  0.66378336    -0.23900
C1039       C  0.52541595  0.13647653  0.66025587     0.19100
C1040       C  0.54367050  0.11852515  0.68397092     0.24100
C1041       C  0.53057886  0.11622624  0.70997653    -0.23900
C1042       C  0.49721477  0.11718198  0.70862665     0.19000
F1043       F  0.48236400  0.10419663  0.73074804    -0.13800
F1044       F  0.44899498  0.11743122  0.67613603    -0.16200
F1045       F  0.57528731  0.11264421  0.68288535    -0.16200
F1046       F  0.54062649  0.14906461  0.63824604    -0.13800
C1047       C  0.04600992  0.37394433  0.67349539     0.24200
C1048       C  0.03453397  0.36283250  0.69901877    -0.23900
C1049       C  0.00124729  0.36036038  0.69904172     0.19100
C1050       C  0.98106584  0.38045548  0.67721340     0.24100
C1051       C  0.99451891  0.40606623  0.65760583    -0.23900
C1052       C  0.02515739  0.39283381  0.65169492     0.19000
F1053       F  0.03816036  0.41023684  0.62970718    -0.13800
F1054       F  0.07777222  0.37324619  0.67123489    -0.16200
F1055       F  0.94937735  0.37191389  0.67373318    -0.16200
F1056       F  0.98853731  0.34079772  0.72044590    -0.13800
C1057       C  0.99502707  0.11749004  0.67251536     0.24200
C1058       C  0.00333924  0.08684341  0.65333511    -0.23900
C1059       C  0.03385477  0.09235656  0.64347610     0.19100
C1060       C  0.05794612  0.11713018  0.65929529     0.24100
C1061       C  0.05191656  0.13572831  0.68486955    -0.23900
C1062       C  0.01929112  0.13796051  0.69016877     0.19000
F1063       F  0.01098417  0.15278632  0.71504750    -0.13800
F1064       F  0.96475143  0.12041110  0.67874248    -0.16200
F1065       F  0.08829050  0.11514880  0.65275430    -0.16200
F1066       F  0.04344088  0.06553052  0.62344342    -0.13800
C1067       C  0.00207401  0.52344467  0.50850301     0.24200
C1068       C  0.97794115  0.99168342  0.99488006    -0.23900
C1069       C  0.96039312  0.02191678  0.50786964     0.19100
C1070       C  0.96050809  0.01909628  0.53725006     0.24100
C1071       C  0.98205913  0.99116046  0.55360145    -0.23900
C1072       C  0.00316324  0.52382090  0.53810891     0.19000
F1073       F  0.02206094  0.55348490  0.55338530    -0.13800
F1074       F  0.01983994  0.55279188  0.49627999    -0.16200
F1075       F  0.93920854  0.04324819  0.54979348    -0.16200
F1076       F  0.93924142  0.04991627  0.99152914    -0.13800
C1077       C  0.94825241  0.13827491  0.85683221     0.24200
C1078       C  0.91590457  0.13791522  0.86255255    -0.23900
C1079       C  0.90990648  0.12127040  0.88854768     0.19100
C1080       C  0.93397650  0.09700841  0.90491358     0.24100
C1081       C  0.96436187  0.08965519  0.89507078    -0.23900
C1082       C  0.97248943  0.11843027  0.87481979     0.19000
F1083       F  0.00231084  0.11931472  0.86755844    -0.13800
F1084       F  0.95617034  0.14966227  0.83119562    -0.16200
F1085       F  0.92433480  0.07225203  0.92568149    -0.16200
F1086       F  0.87954839  0.12035281  0.89510973    -0.13800
C1087       C  0.96941325  0.36683445  0.84455758     0.24200
C1088       C  0.93617363  0.36692506  0.84526207    -0.23900
C1089       C  0.92496436  0.37698710  0.87121712     0.19100
C1090       C  0.94546631  0.39625669  0.89303306     0.24100
C1091       C  0.97543195  0.41117356  0.88696763    -0.23900
C1092       C  0.98924616  0.38693331  0.86663169     0.19000
F1093       F  0.02090162  0.37767680  0.87045996    -0.13800
F1094       F  0.98241222  0.34905950  0.82252085    -0.16200
F1095       F  0.93223808  0.41214071  0.91552040    -0.16200
F1096       F  0.89350136  0.37430186  0.87421909    -0.13800
C1097       C  0.97175179  0.54646819  0.38932336     0.30600
C1098       C  0.97903646  0.96118980  0.38886716     0.30600
C1099       C  0.94499577  0.52420833  0.36890504    -0.05600
C1100       C  0.00323675  0.52869657  0.37755365    -0.06400
C1101       C  0.97290304  0.52104725  0.41697396    -0.06300
C1102       C  0.95139778  0.98283260  0.36877003    -0.05600
C1103       C  0.00830196  0.98530762  0.38055844    -0.06400
C1104       C  0.97685589  0.98113256  0.41821421    -0.06300
C1105       C  0.93235241  0.97174095  0.34342856    -0.31600
N1106       N  0.91496889  0.00645340  0.33279669     0.14900
C1107       C  0.92428434  0.53921630  0.34549160    -0.31700
H1108       H  0.91831849  0.57183329  0.33982477     0.16800
C1109       C  0.03668398  0.97299416  0.37162626    -0.30600
N1110       N  0.05259700  0.00849053  0.36475466     0.13600
C1111       C  0.03141669  0.54245839  0.36701438    -0.30600
C1112       C  0.98172253  0.96582792  0.44575560    -0.30900
N1113       N  0.98026195  0.49480480  0.46100921     0.14100
H1114       H  0.98513466  0.93218924  0.45214023     0.16700
C1115       C  0.97715288  0.53181900  0.44542967    -0.30900
H1116       H  0.97776625  0.56446151  0.45411704     0.16700
H1117       H  0.03960965  0.57539215  0.36548311     0.16700
H1118       H  0.93429772  0.94322321  0.33115467     0.16800
H1119       H  0.04584380  0.94074091  0.37044759     0.16700
Zr1120     Zr  0.81839992  0.68992987  0.29667552     2.17500
O1121       O  0.78932298  0.64111530  0.32424670    -0.50700
O1122       O  0.81770422  0.61804234  0.27143263    -0.73900
O1123       O  0.76124384  0.71273421  0.29560893    -0.80700
O1124       O  0.89312070  0.64594594  0.31402320    -0.82500
O1125       O  0.75368801  0.77931765  0.27471478    -0.78100
O1126       O  0.85664567  0.66610045  0.34006314    -0.89700
O1127       O  0.83653262  0.62679064  0.22907164    -0.75700
O1128       O  0.80472619  0.72428878  0.25091113    -0.85200
O1129       O  0.86202016  0.67806910  0.26996907    -0.84900
O1130       O  0.81003852  0.76827661  0.30280281    -0.71600
O1131       O  0.86325414  0.72535154  0.32261659    -0.83800
Zr1132     Zr  0.88913854  0.82107346  0.26042470     2.26400
Zr1133     Zr  0.80109704  0.80280096  0.25623817     2.06300
Zr1134     Zr  0.90635109  0.71315388  0.29523777     2.10000
Zr1135     Zr  0.84742613  0.70740351  0.22464622     1.78800
O1136       O  0.93439053  0.73072046  0.34268530    -0.92600
O1137       O  0.79747593  0.69661066  0.19319061    -0.40400
O1138       O  0.89382089  0.74453720  0.24942514    -0.77000
O1139       O  0.84488445  0.78647971  0.23104589    -0.95700
O1140       O  0.84446222  0.83468574  0.28547520    -0.89000
O1141       O  0.89862477  0.78568975  0.30512693    -0.91800
C1142       C  0.82692025  0.60205827  0.24848182     1.01900
C1143       C  0.88472709  0.64970800  0.33816471     1.14800
C1144       C  0.74390231  0.74673031  0.28775520     1.05600
O1145       O  0.78302718  0.78943591  0.20604978    -0.94000
O1146       O  0.81248310  0.88358778  0.25311196    -0.89700
O1147       O  0.86535778  0.89328308  0.25099993    -0.82900
C1148       C  0.83686364  0.90863077  0.25078615     1.12300
O1149       O  0.82136952  0.78315487  0.36730782    -0.96000
Zr1150     Zr  0.85461674  0.80000804  0.33064239     1.88900
O1151       O  0.91928545  0.86288079  0.29811331    -0.72600
O1152       O  0.75484558  0.85026576  0.24332878    -0.51900
O1153       O  0.82631528  0.85854939  0.35161523    -0.96600
O1154       O  0.89217666  0.78210257  0.37268036    -0.53800
O1155       O  0.88004556  0.86747843  0.32434430    -0.73100
C1156       C  0.90965909  0.86821326  0.32228583     0.99200
O1157       O  0.90652261  0.84812905  0.21721392    -0.62000
O1158       O  0.94140346  0.66051755  0.27585807    -0.56800
O1159       O  0.94717407  0.80924121  0.26587138    -0.93400
O1160       O  0.95556114  0.74309801  0.28704586    -0.91900
O1161       O  0.89098764  0.67341747  0.20344416    -0.92200
O1162       O  0.84950982  0.73177277  0.17617107    -0.91000
C1163       C  0.96516697  0.77786970  0.27659338     1.18000
H1164       H  0.87001513  0.64894235  0.26840394     0.34000
H1165       H  0.84222905  0.80070301  0.21275264     0.44800
H1166       H  0.91879465  0.79271897  0.31600802     0.38400
H1167       H  0.79366225  0.77459895  0.31459627     0.34900
H1168       H  0.80251363  0.67378785  0.17965550     0.26600
H1169       H  0.73818868  0.83194227  0.23251176     0.32600
H1170       H  0.80941007  0.86769405  0.33624634     0.38500
H1171       H  0.88031811  0.65382375  0.18854635     0.32900
H1172       H  0.93030273  0.63221834  0.27573351     0.31800
H1173       H  0.95612577  0.74062694  0.34013867     0.33500
H1174       H  0.88529552  0.79973530  0.38829075     0.32500
H1175       H  0.86727388  0.75293862  0.17776019     0.36500
H1176       H  0.91454243  0.82170893  0.20838303     0.29200
H1177       H  0.77121687  0.63009224  0.31073389     0.33400
H1178       H  0.82691749  0.75264913  0.37259543     0.36300
H1179       H  0.94001180  0.66823910  0.25551611     0.28900
H1180       H  0.88650893  0.85561771  0.20477078     0.41800
H1181       H  0.78516133  0.81781364  0.19671902     0.31800
H1182       H  0.78302732  0.68203410  0.20493911     0.39400
H1183       H  0.91301838  0.79428100  0.36954548     0.31300
H1184       H  0.74640923  0.85749753  0.26127189     0.31400
H1185       H  0.77937891  0.66007342  0.33757799     0.31600
C1186       C  0.83323943  0.95947396  0.24949268     0.30600
C1187       C  0.82925105  0.55096192  0.24617437     0.30600
C1188       C  0.85290637  0.98312352  0.27470585    -0.05600
C1189       C  0.84521207  0.98311159  0.22396508    -0.06400
C1190       C  0.79960183  0.97938522  0.24971089    -0.06300
C1191       C  0.85169260  0.52895107  0.27054188    -0.05600
C1192       C  0.84237235  0.53056247  0.21983519    -0.06400
C1193       C  0.79760919  0.52584466  0.24719139    -0.06300
C1194       C  0.87542955  0.54233362  0.29184833    -0.31600
N1195       N  0.89017985  0.00666769  0.30923768     0.14900
C1196       C  0.87713244  0.97079896  0.29563027    -0.31700
H1197       H  0.88548247  0.93823911  0.29961540     0.16800
C1198       C  0.86776939  0.54441098  0.20590106    -0.30600
N1199       N  0.88429811  0.00799134  0.20019152     0.13600
C1200       C  0.87013403  0.97180221  0.20913097    -0.30600
C1201       C  0.76698783  0.53656373  0.25225893    -0.30900
N1202       N  0.74950540  0.99875604  0.25488818     0.14100
H1203       H  0.75820535  0.56918353  0.25530408     0.16700
C1204       C  0.76927578  0.96419173  0.25271622    -0.30900
H1205       H  0.76248611  0.93082633  0.25495895     0.16700
H1206       H  0.87932094  0.93911720  0.20791831     0.16700
H1207       H  0.88124704  0.57533303  0.29742787     0.16800
H1208       H  0.87687733  0.57719770  0.20618173     0.16700
C1209       C  0.98894460  0.54751693  0.15544335     0.30600
C1210       C  0.98425727  0.95595233  0.16014358     0.30600
C1211       C  0.01596012  0.52368798  0.17479503    -0.05600
C1212       C  0.95788139  0.52993552  0.16719150    -0.06400
C1213       C  0.98680598  0.52345470  0.12707406    -0.06300
C1214       C  0.01289105  0.97656750  0.17937579    -0.05600
C1215       C  0.95598851  0.98159462  0.16991734    -0.06400
C1216       C  0.98516477  0.97523941  0.13050949    -0.06300
C1217       C  0.03028198  0.96582134  0.20561402    -0.31600
N1218       N  0.04759048  0.00017553  0.21657546     0.14900
C1219       C  0.03809785  0.53654374  0.19781943    -0.31700
H1220       H  0.04374241  0.56866575  0.20487832     0.16800
C1221       C  0.92835678  0.97104482  0.18064667    -0.30600
N1222       N  0.91291939  0.00776764  0.18709239     0.13600
C1223       C  0.92960419  0.54460543  0.17718406    -0.30600
C1224       C  0.97951990  0.95995106  0.10286707    -0.30900
N1225       N  0.98058298  0.49906147  0.08254058     0.14100
H1226       H  0.97550365  0.92643920  0.09631754     0.16700
C1227       C  0.98300872  0.53543736  0.09895655    -0.30900
H1228       H  0.98205649  0.56843986  0.09103848     0.16700
H1229       H  0.92156342  0.57771741  0.17887283     0.16700
H1230       H  0.02690271  0.93813818  0.21818473     0.16800
H1231       H  0.91978670  0.93902033  0.18368154     0.16700
Zr1232     Zr  0.14428005  0.68272450  0.24989675     2.17500
O1233       O  0.17132425  0.63741770  0.21802187    -0.50700
O1234       O  0.14491519  0.61041873  0.27328448    -0.73900
O1235       O  0.20250928  0.70022572  0.25287720    -0.80700
O1236       O  0.06800884  0.64222510  0.23311207    -0.82500
O1237       O  0.21062268  0.76672169  0.27392349    -0.78100
O1238       O  0.10439315  0.66162642  0.20692199    -0.89700
O1239       O  0.12717123  0.61974011  0.31615220    -0.75700
O1240       O  0.15879218  0.71687574  0.29583088    -0.85200
O1241       O  0.10106582  0.67108866  0.27715906    -0.84900
O1242       O  0.15368794  0.76047209  0.24444034    -0.71600
O1243       O  0.09908330  0.72002868  0.22614462    -0.83800
Zr1244     Zr  0.07532466  0.81519521  0.28887548     2.26400
Zr1245     Zr  0.16307845  0.79552786  0.29101639     2.06300
Zr1246     Zr  0.05650666  0.70897735  0.25433584     2.10000
Zr1247     Zr  0.11636571  0.70070891  0.32230308     1.78800
O1248       O  0.02503586  0.72708870  0.20847340    -0.92600
O1249       O  0.16596871  0.68989385  0.35439501    -0.40400
O1250       O  0.07462496  0.74044856  0.29684370    -0.77000
O1251       O  0.12016985  0.77982108  0.31738485    -0.95700
O1252       O  0.11919676  0.82880069  0.26305658    -0.89000
O1253       O  0.06486572  0.78072592  0.24384880    -0.91800
C1254       C  0.13589304  0.59474542  0.29615952     1.01900
C1255       C  0.07610547  0.64646015  0.20888685     1.14800
C1256       C  0.22047613  0.73307528  0.26150150     1.05600
O1257       O  0.18390934  0.78656070  0.34099900    -0.94000
O1258       O  0.15043933  0.87676071  0.29569595    -0.89700
O1259       O  0.09790452  0.88713597  0.29923476    -0.82900
C1260       C  0.12612641  0.90223545  0.29892538     1.12300
O1261       O  0.13553031  0.77863859  0.17649985    -0.96000
Zr1262     Zr  0.10874022  0.79385637  0.21789306     1.88900
O1263       O  0.04472587  0.85648732  0.25045959    -0.72600
O1264       O  0.20926350  0.84365946  0.29699259    -0.51900
O1265       O  0.14440709  0.84754361  0.20174894    -0.96600
O1266       O  0.06983145  0.77660045  0.17657497    -0.53800
O1267       O  0.08343345  0.86194984  0.22364791    -0.73100
C1268       C  0.05394688  0.86269011  0.22616282     0.99200
O1269       O  0.05898718  0.84308266  0.33275013    -0.62000
O1270       O  0.02325222  0.65686907  0.27592410    -0.56800
O1271       O  0.01741440  0.80804603  0.28495686    -0.93400
O1272       O  0.00833235  0.74126056  0.26499339    -0.91900
O1273       O  0.07226397  0.66571119  0.34153141    -0.92200
O1274       O  0.11284076  0.72197436  0.37128819    -0.91000
C1275       C  0.99906290  0.77695896  0.27496426     1.18000
H1276       H  0.09248781  0.64216443  0.27828473     0.34000
H1277       H  0.12349175  0.79355026  0.33585308     0.44800
H1278       H  0.04458555  0.78774315  0.23312653     0.38400
H1279       H  0.17051789  0.76554718  0.23297413     0.34900
H1280       H  0.16210442  0.66359643  0.36538109     0.26600
H1281       H  0.22705448  0.82707569  0.30778411     0.32600
H1282       H  0.16215636  0.85002233  0.21757064     0.38500
H1283       H  0.08265288  0.64668097  0.35687048     0.32900
H1284       H  0.00110883  0.66012404  0.26628838     0.31800
H1285       H  0.00349805  0.73637661  0.21234176     0.33500
H1286       H  0.07502847  0.79523746  0.16092910     0.32500
H1287       H  0.09595596  0.74470162  0.36990024     0.36500
H1288       H  0.05182646  0.81703240  0.34227264     0.29200
H1289       H  0.18917899  0.62307396  0.23026240     0.33400
H1290       H  0.13334541  0.74682161  0.17355614     0.36300
H1291       H  0.03010955  0.62755627  0.27034021     0.28900
H1292       H  0.07912034  0.85159374  0.34461229     0.41800
H1293       H  0.18273395  0.81607039  0.34927264     0.31800
H1294       H  0.18209222  0.68039192  0.34226633     0.39400
H1295       H  0.04889256  0.78731602  0.18091722     0.31300
H1296       H  0.21553480  0.84786964  0.27783326     0.31400
H1297       H  0.18170994  0.65799884  0.20619226     0.31600
C1298       C  0.12922977  0.95332866  0.30024016     0.30600
C1299       C  0.13272609  0.54390699  0.29763537     0.30600
C1300       C  0.10891110  0.97670047  0.27526922    -0.05600
C1301       C  0.11812556  0.97842006  0.32597586    -0.06400
C1302       C  0.16260342  0.97248319  0.29909418    -0.06300
C1303       C  0.11095973  0.52240034  0.27243376    -0.05600
C1304       C  0.11828707  0.52431094  0.32324612    -0.06400
C1305       C  0.16431275  0.51785744  0.29749517    -0.06300
C1306       C  0.08857357  0.53625521  0.25014591    -0.31600
N1307       N  0.07163884  0.00026215  0.24068708     0.14900
C1308       C  0.08453104  0.96440260  0.25448205    -0.31700
H1309       H  0.07616566  0.93192675  0.25056011     0.16800
C1310       C  0.09275979  0.53949138  0.33678695    -0.30600
N1311       N  0.08078037  0.00642027  0.35110791     0.13600
C1312       C  0.09364096  0.96906891  0.34167413    -0.30600
C1313       C  0.19548815  0.52747337  0.29385654    -0.30900
N1314       N  0.21228910  0.98976725  0.29267544     0.14100
H1315       H  0.20491551  0.55974185  0.29152861     0.16700
C1316       C  0.19251290  0.95610200  0.29581053    -0.30900
H1317       H  0.19916492  0.92244695  0.29429807     0.16700
H1318       H  0.08369873  0.93701463  0.34308920     0.16700
H1319       H  0.08351834  0.56944571  0.24438125     0.16800
H1320       H  0.08416760  0.57267451  0.33664324     0.16700
C1321       C  0.48962182  0.80252541  0.15952474     0.30600
C1322       C  0.49076706  0.71337059  0.16251953     0.30600
C1323       C  0.51755864  0.78203584  0.17979643    -0.05600
C1324       C  0.45974565  0.78162225  0.17109822    -0.06400
C1325       C  0.48976595  0.77749912  0.13116703    -0.06300
C1326       C  0.51898363  0.73730479  0.18049235    -0.05600
C1327       C  0.46138006  0.73589804  0.17290294    -0.06400
C1328       C  0.49022226  0.73253467  0.13280208    -0.06300
C1329       C  0.54341396  0.72689016  0.20216853    -0.31600
N1330       N  0.55533391  0.76305484  0.21569570     0.14900
C1331       C  0.53886487  0.79687123  0.20297377    -0.31700
H1332       H  0.54016017  0.82847225  0.21213021     0.16800
C1333       C  0.43560124  0.72209869  0.18539349    -0.30600
N1334       N  0.41696805  0.75628069  0.19029366     0.13600
C1335       C  0.43089292  0.79296788  0.18138520    -0.30600
C1336       C  0.48822964  0.71634000  0.10539756    -0.30900
N1337       N  0.48694159  0.75029220  0.08706530     0.14100
H1338       H  0.48804549  0.68237212  0.09927529     0.16700
C1339       C  0.48711352  0.78769304  0.10255367    -0.30900
H1340       H  0.48521064  0.82005136  0.09357829     0.16700
H1341       H  0.42027549  0.82486604  0.18198144     0.16700
H1342       H  0.55211775  0.69605017  0.20866595     0.16800
H1343       H  0.43086030  0.68993255  0.19179533     0.16700
Zr1344     Zr  0.64083536  0.94563283  0.25311124     2.17500
O1345       O  0.66527416  0.89957301  0.21994183    -0.50700
O1346       O  0.64568885  0.87418849  0.27716335    -0.73900
O1347       O  0.69835300  0.96555056  0.25277330    -0.80700
O1348       O  0.56330707  0.90271600  0.23955443    -0.82500
O1349       O  0.70936893  0.53073631  0.27609680    -0.78100
O1350       O  0.59873324  0.92345443  0.21229221    -0.89700
O1351       O  0.63040062  0.88454282  0.32084350    -0.75700
O1352       O  0.65865422  0.98308942  0.29720348    -0.85200
O1353       O  0.60044805  0.93282682  0.28339072    -0.84900
O1354       O  0.64793040  0.52299206  0.24532685    -0.71600
O1355       O  0.59296829  0.98003987  0.23284636    -0.83800
Zr1356     Zr  0.57393979  0.57894737  0.29568211     2.26400
Zr1357     Zr  0.66103176  0.56123173  0.29037912     2.06300
Zr1358     Zr  0.55301613  0.96784252  0.26376866     2.10000
Zr1359     Zr  0.61981193  0.96549377  0.32706115     1.78800
O1360       O  0.50840595  0.98622625  0.22706184    -0.92600
O1361       O  0.67318046  0.95402133  0.35288376    -0.40400
O1362       O  0.57503680  0.00239653  0.30415025    -0.77000
O1363       O  0.62179098  0.54482777  0.32072795    -0.95700
O1364       O  0.61404659  0.59160376  0.26556263    -0.89000
O1365       O  0.55874265  0.54226275  0.25106147    -0.91800
C1366       C  0.63818646  0.85910003  0.30068736     1.01900
C1367       C  0.57082623  0.90749946  0.21497305     1.14800
C1368       C  0.71687757  0.99804736  0.26116617     1.05600
O1369       O  0.69231203  0.56672622  0.33716049    -0.94000
O1370       O  0.64932114  0.64125891  0.29948752    -0.89700
O1371       O  0.59703813  0.65172670  0.30412013    -0.82900
C1372       C  0.62531667  0.66675067  0.30338566     1.12300
O1373       O  0.61671522  0.54479486  0.17483502    -0.96000
Zr1374     Zr  0.60009169  0.55396209  0.22172176     1.88900
O1375       O  0.53999679  0.62131361  0.25980772    -0.72600
O1376       O  0.69604564  0.61338175  0.27130566    -0.51900
O1377       O  0.63488377  0.60327410  0.20014053    -0.96600
O1378       O  0.55536068  0.53004743  0.18676887    -0.53800
O1379       O  0.58015713  0.62181100  0.23559395    -0.73100
C1380       C  0.55042281  0.62509995  0.23596695     0.99200
O1381       O  0.56031695  0.60410134  0.34130818    -0.62000
O1382       O  0.52146467  0.90782816  0.27854997    -0.56800
O1383       O  0.51663844  0.56849523  0.29086222    -0.93400
O1384       O  0.52093071  0.99417755  0.29806821    -0.91900
O1385       O  0.58241394  0.93005554  0.35439805    -0.92200
O1386       O  0.62271205  0.99078989  0.37604761    -0.91000
C1387       C  0.50413348  0.53117748  0.29252455     1.18000
H1388       H  0.59254897  0.90363973  0.28468993     0.34000
H1389       H  0.62737714  0.55905963  0.33884816     0.44800
H1390       H  0.53821786  0.55008566  0.24203630     0.38400
H1391       H  0.66391093  0.52789351  0.23293445     0.34900
H1392       H  0.68437543  0.93476993  0.34058705     0.26600
H1393       H  0.71727321  0.61071232  0.28293157     0.32600
H1394       H  0.64858665  0.61655316  0.21642981     0.38500
H1395       H  0.59606149  0.91208180  0.36849445     0.32900
H1396       H  0.52880047  0.90425079  0.29909341     0.31800
H1397       H  0.48890013  0.98520294  0.23651831     0.33500
H1398       H  0.55696214  0.54474882  0.16854448     0.32500
H1399       H  0.60449387  0.51309595  0.37611813     0.36500
H1400       H  0.55395294  0.57747447  0.35071683     0.29200
H1401       H  0.68434547  0.88645398  0.23125559     0.33400
H1402       H  0.62888255  0.51703969  0.17608277     0.36300
H1403       H  0.49934855  0.91923184  0.27752192     0.28900
H1404       H  0.58102219  0.61237351  0.35233092     0.41800
H1405       H  0.70405183  0.59445229  0.33666118     0.31800
H1406       H  0.68406864  0.98241169  0.35259708     0.39400
H1407       H  0.53533780  0.54114955  0.19285983     0.31300
H1408       H  0.69912523  0.60283061  0.25212471     0.31400
H1409       H  0.67394449  0.91995923  0.20685454     0.31600
C1410       C  0.62923387  0.71793331  0.30470601     0.30600
C1411       C  0.63484380  0.80849895  0.30267670     0.30600
C1412       C  0.61006931  0.74143504  0.27921082    -0.05600
C1413       C  0.61826893  0.74440129  0.32991562    -0.06400
C1414       C  0.66302663  0.73581877  0.30388487    -0.06300
C1415       C  0.61267025  0.78672936  0.27789198    -0.05600
C1416       C  0.62075579  0.79051942  0.32875832    -0.06400
C1417       C  0.66579036  0.78125646  0.30261887    -0.06300
C1418       C  0.59278991  0.79975328  0.25360272    -0.31600
N1419       N  0.57805787  0.76406285  0.24074000     0.14900
C1420       C  0.58863890  0.72869925  0.25637931    -0.31700
H1421       H  0.58077464  0.69611348  0.25219169     0.16800
C1422       C  0.59741126  0.80782679  0.34399893    -0.30600
N1423       N  0.58221658  0.77489031  0.35532985     0.13600
C1424       C  0.59413085  0.73664918  0.34606747    -0.30600
C1425       C  0.69629149  0.78938171  0.29689304    -0.30900
N1426       N  0.71223065  0.75087131  0.29543363     0.14100
H1427       H  0.70578334  0.82103852  0.29282085     0.16700
C1428       C  0.69235187  0.71808770  0.30001870    -0.30900
H1429       H  0.69853522  0.68410747  0.29909255     0.16700
H1430       H  0.58374475  0.70496692  0.34800659     0.16700
H1431       H  0.58965420  0.83247090  0.24591159     0.16800
H1432       H  0.58990326  0.84142769  0.34438841     0.16700
C1433       C  0.47312130  0.80755508  0.39406188     0.30600
C1434       C  0.48566544  0.72049677  0.39037551     0.30600
C1435       C  0.45021278  0.78156282  0.37238734    -0.05600
C1436       C  0.50682774  0.79568022  0.38423225    -0.06400
C1437       C  0.47429708  0.78086219  0.42177982    -0.06300
C1438       C  0.45596257  0.73782774  0.37081587    -0.05600
C1439       C  0.51253046  0.75076240  0.38499059    -0.06400
C1440       C  0.48026737  0.73631536  0.42008592    -0.06300
C1441       C  0.43305996  0.72150331  0.34952350    -0.31600
N1442       N  0.41451610  0.75449532  0.33754607     0.14900
C1443       C  0.42499899  0.79149037  0.35135586    -0.31700
H1444       H  0.41570332  0.82335909  0.34610892     0.16800
C1445       C  0.54292525  0.74200322  0.38060562    -0.30600
N1446       N  0.55544328  0.77778292  0.37067164     0.13600
C1447       C  0.53435196  0.81173753  0.37337521    -0.30600
C1448       C  0.48822654  0.72220120  0.44782215    -0.30900
N1449       N  0.48507927  0.75587500  0.46586873     0.14100
H1450       H  0.49774784  0.69073147  0.45470640     0.16700
C1451       C  0.47793349  0.79211436  0.45015097    -0.30900
H1452       H  0.47557752  0.82452581  0.45866725     0.16700
H1453       H  0.53805471  0.84473701  0.36686744     0.16700
H1454       H  0.43010707  0.68846874  0.34281896     0.16800
H1455       H  0.55396348  0.71011897  0.38207534     0.16700
Zr1456     Zr  0.31902838  0.93099219  0.29675278     2.17500
O1457       O  0.29279299  0.88659714  0.32906962    -0.50700
O1458       O  0.31720921  0.85699034  0.27434184    -0.73900
O1459       O  0.26180018  0.95259323  0.29428220    -0.80700
O1460       O  0.39585343  0.89179193  0.32260526    -0.82500
O1461       O  0.25639989  0.52005335  0.27570317    -0.78100
O1462       O  0.35519655  0.91838315  0.34258983    -0.89700
O1463       O  0.33680702  0.86368071  0.23219570    -0.75700
O1464       O  0.30476327  0.96446016  0.25092957    -0.85200
O1465       O  0.36160175  0.91200165  0.26979594    -0.84900
O1466       O  0.31266044  0.50973970  0.30519389    -0.71600
O1467       O  0.36633039  0.96664665  0.31608557    -0.83800
Zr1468     Zr  0.39418410  0.55855674  0.26413897     2.26400
Zr1469     Zr  0.30525210  0.54213384  0.25811230     2.06300
Zr1470     Zr  0.40832133  0.94540080  0.28933630     2.10000
Zr1471     Zr  0.34669285  0.94372062  0.22470377     1.78800
O1472       O  0.45271293  0.89814469  0.30862976    -0.92600
O1473       O  0.29374529  0.93049285  0.19852060    -0.40400
O1474       O  0.39117405  0.98071463  0.24842470    -0.77000
O1475       O  0.35018398  0.52331068  0.23465535    -0.95700
O1476       O  0.34853839  0.57696096  0.28641168    -0.89000
O1477       O  0.40306243  0.52441329  0.30926993    -0.91800
C1478       C  0.32711874  0.83989415  0.25202710     1.01900
C1479       C  0.38388833  0.90236515  0.34479514     1.14800
C1480       C  0.24478187  0.98680178  0.28655006     1.05600
O1481       O  0.28775851  0.53042641  0.20768518    -0.94000
O1482       O  0.31799798  0.62270867  0.25476514    -0.89700
O1483       O  0.37115680  0.63202633  0.25401586    -0.82900
C1484       C  0.34256655  0.64778482  0.25301986     1.12300
O1485       O  0.31992921  0.53837801  0.36651042    -0.96000
Zr1486     Zr  0.35718591  0.54466470  0.33162074     1.88900
O1487       O  0.42602761  0.59773549  0.30327059    -0.72600
O1488       O  0.25867916  0.58898911  0.24468239    -0.51900
O1489       O  0.33157931  0.61595594  0.33211436    -0.96600
O1490       O  0.37751022  0.52647411  0.38066733    -0.53800
O1491       O  0.40267655  0.59003407  0.34334302    -0.73100
C1492       C  0.42586443  0.60142777  0.33031263     0.99200
O1493       O  0.41287470  0.58277633  0.22050437    -0.62000
O1494       O  0.42057237  0.90577656  0.24747822    -0.56800
O1495       O  0.45192111  0.55338687  0.27285181    -0.93400
O1496       O  0.45881242  0.98305583  0.29439536    -0.91900
O1497       O  0.38395275  0.90962634  0.19608421    -0.92200
O1498       O  0.34394550  0.96514909  0.17505686    -0.91000
C1499       C  0.46964015  0.52512865  0.28725329     1.18000
H1500       H  0.37037516  0.88248250  0.27180878     0.34000
H1501       H  0.34799190  0.53621535  0.21597533     0.44800
H1502       H  0.42266077  0.52706236  0.32207961     0.38400
H1503       H  0.29548129  0.51627449  0.31605117     0.34900
H1504       H  0.29759570  0.90922411  0.18359918     0.26600
H1505       H  0.24187988  0.57056820  0.23414391     0.32600
H1506       H  0.34933596  0.63695066  0.33611655     0.38500
H1507       H  0.37127461  0.88699142  0.18482130     0.32900
H1508       H  0.44359778  0.91096350  0.24677939     0.31800
H1509       H  0.44803318  0.86917345  0.29990357     0.33500
H1510       H  0.37879335  0.55460526  0.39099978     0.32500
H1511       H  0.37725085  0.48400353  0.18331606     0.36500
H1512       H  0.42358906  0.55693829  0.21344049     0.29200
H1513       H  0.27475139  0.87267129  0.31693756     0.33400
H1514       H  0.31495626  0.50695454  0.36704085     0.36300
H1515       H  0.41932561  0.87451324  0.25213185     0.28900
H1516       H  0.39318766  0.58659851  0.20683231     0.43000
H1517       H  0.26844752  0.51210273  0.20706936     0.31800
H1518       H  0.28203601  0.91356126  0.21147076     0.39400
H1519       H  0.40007320  0.51770005  0.38031520     0.31300
H1520       H  0.25032543  0.59701604  0.26253642     0.31400
H1521       H  0.28261680  0.90761363  0.34100465     0.31600
C1522       C  0.33843425  0.69886800  0.25170552     0.30600
C1523       C  0.33157554  0.78927544  0.25136646     0.30600
C1524       C  0.35691118  0.72388461  0.27718956    -0.05600
C1525       C  0.35011042  0.72339810  0.22620607    -0.06400
C1526       C  0.30400365  0.71713099  0.25135745    -0.06300
C1527       C  0.35338431  0.76930925  0.27704656    -0.05600
C1528       C  0.34678701  0.76954927  0.22620207    -0.06400
C1529       C  0.30091864  0.76250913  0.25115619    -0.06300
C1530       C  0.37397697  0.78508134  0.29993010    -0.31600
N1531       N  0.38998299  0.75113851  0.31388259     0.14900
C1532       C  0.37975214  0.71368025  0.30006676    -0.31700
H1533       H  0.38887117  0.68144367  0.30552737     0.16800
C1534       C  0.37120192  0.78592601  0.21225155    -0.30600
N1535       N  0.38826144  0.75263870  0.20292160     0.13600
C1536       C  0.37606557  0.71484835  0.21190340    -0.30600
C1537       C  0.26970291  0.77219517  0.25414874    -0.30900
N1538       N  0.25326327  0.73457096  0.25586344     0.14100
H1539       H  0.25989223  0.80455558  0.25601946     0.16700
C1540       C  0.27390659  0.70079493  0.25421040    -0.30900
H1541       H  0.26783790  0.66731200  0.25675319     0.16700
H1542       H  0.38702279  0.68313630  0.21092503     0.16700
H1543       H  0.37773025  0.81887686  0.30524456     0.16800
H1544       H  0.37846058  0.81950795  0.21203962     0.16700
C1545       C  0.42617648  0.85126530  0.40732689     0.24200
C1546       C  0.45693586  0.85181310  0.39746355    -0.23900
C1547       C  0.46366890  0.88778476  0.38136390     0.19100
C1548       C  0.43839809  0.91459102  0.36943054     0.24100
C1549       C  0.40644402  0.90275108  0.37140171    -0.23900
C1550       C  0.40083010  0.87580860  0.39351761     0.19000
F1551       F  0.37041808  0.86691307  0.39802706    -0.13800
F1552       F  0.41818497  0.82011301  0.42520225    -0.16200
F1553       F  0.44447674  0.94745649  0.35200572    -0.16200
F1554       F  0.49340964  0.89405019  0.37442062    -0.13800
C1555       C  0.47446914  0.64111406  0.39536024     0.24200
C1556       C  0.49141807  0.67329192  0.38280820    -0.23900
C1557       C  0.49813087  0.66510127  0.35448977     0.19100
C1558       C  0.47925659  0.63635075  0.33723321     0.24100
C1559       C  0.45512507  0.61440443  0.34848176    -0.23900
C1560       C  0.45696889  0.61085521  0.37817976     0.19000
F1561       F  0.43843263  0.58257152  0.39041796    -0.13800
F1562       F  0.46925090  0.64341458  0.42277343    -0.16200
F1563       F  0.48039043  0.63725157  0.30881561    -0.16200
F1564       F  0.51550711  0.69245603  0.34044264    -0.13800
C1565       C  0.46581984  0.71841947  0.01000559     0.24200
C1566       C  0.48749909  0.75337332  0.49637317    -0.23900
C1567       C  0.50869515  0.77098224  0.01396267     0.19100
C1568       C  0.50876488  0.77262932  0.04350025     0.24100
C1569       C  0.48723294  0.74741153  0.05667525    -0.23900
C1570       C  0.46610231  0.71966184  0.03965558     0.19000
F1571       F  0.44472024  0.69535115  0.05158636    -0.13800
F1572       F  0.45615422  0.68829286  0.49305423    -0.16200
F1573       F  0.53017217  0.79857221  0.05937101    -0.16200
F1574       F  0.52998554  0.79529719  0.00193522    -0.13800
C1575       C  0.48855375  0.87819802  0.17892549     0.24200
C1576       C  0.49734835  0.85119978  0.15758686    -0.23900
C1577       C  0.52689171  0.86178115  0.14743462     0.19100
C1578       C  0.55031207  0.88642870  0.16429914     0.24100
C1579       C  0.54439814  0.90074230  0.19105297    -0.23900
C1580       C  0.51225687  0.89904455  0.19707506     0.19000
F1581       F  0.50470151  0.90754263  0.22326569    -0.13800
F1582       F  0.45905227  0.87626084  0.18686392    -0.16200
F1583       F  0.58020603  0.88898262  0.15682794    -0.16200
F1584       F  0.53655655  0.84033151  0.12507915    -0.13800
C1585       C  0.47771805  0.64046414  0.18268423     0.24200
C1586       C  0.49351689  0.66370612  0.16338189    -0.23900
C1587       C  0.52375758  0.64740244  0.15949278     0.19100
C1588       C  0.54207895  0.62804402  0.18271248     0.24100
C1589       C  0.52904055  0.62430656  0.20867123    -0.23900
C1590       C  0.49567298  0.62486804  0.20738652     0.19000
F1591       F  0.48096448  0.61052065  0.22926299    -0.13800
F1592       F  0.44702560  0.62748824  0.17544866    -0.16200
F1593       F  0.57371508  0.62216400  0.18147056    -0.16200
F1594       F  0.53897374  0.66220941  0.13802752    -0.13800
C1595       C  0.04002220  0.87532865  0.17397285     0.24200
C1596       C  0.03032945  0.86516578  0.20039298    -0.23900
C1597       C  0.99735709  0.86256525  0.20206853     0.19100
C1598       C  0.97594964  0.88227199  0.18097496     0.24100
C1599       C  0.98779326  0.90642586  0.15981335    -0.23900
C1600       C  0.01768299  0.89218982  0.15253301     0.19000
F1601       F  0.02880726  0.90667829  0.12879124    -0.13800
F1602       F  0.07134100  0.87487482  0.17004339    -0.16200
F1603       F  0.94430174  0.87547017  0.18001096    -0.16200
F1604       F  0.98616730  0.84382518  0.22452777    -0.13800
C1605       C  0.99243047  0.62347560  0.17376642     0.24200
C1606       C  0.99975234  0.59471847  0.15298763    -0.23900
C1607       C  0.02973829  0.60148449  0.14245414     0.19100
C1608       C  0.05431624  0.62528919  0.15847408     0.24100
C1609       C  0.04938362  0.64128240  0.18507754    -0.23900
C1610       C  0.01729442  0.64204335  0.19159736     0.19000
F1611       F  0.01023815  0.65269345  0.21770424    -0.13800
F1612       F  0.96291056  0.62506646  0.18173148    -0.16200
F1613       F  0.08410150  0.62507314  0.15061185    -0.16200
F1614       F  0.03837281  0.57702778  0.12087745    -0.13800
C1615       C  0.99651318  0.96151504  0.01222718     0.24200
C1616       C  0.98325811  0.49289287  0.49169185    -0.23900
C1617       C  0.96227622  0.46794869  0.00529450     0.19100
C1618       C  0.96218559  0.46793718  0.03481395     0.24100
C1619       C  0.98081156  0.49806420  0.05217646    -0.23900
C1620       C  0.99631203  0.96181588  0.04168662     0.19000
F1621       F  0.01598009  0.93405322  0.05798184    -0.13800
F1622       F  0.01598778  0.93298322  0.00083858    -0.16200
F1623       F  0.94292207  0.43965152  0.04622986    -0.16200
F1624       F  0.94636653  0.43361577  0.48977354    -0.13800
C1625       C  0.94342720  0.64418458  0.35588041     0.24200
C1626       C  0.91117605  0.64294379  0.36203974    -0.23900
C1627       C  0.90588179  0.62453287  0.38774061     0.19100
C1628       C  0.93053546  0.60011753  0.40332252     0.24100
C1629       C  0.96065926  0.59361496  0.39277763    -0.23900
C1630       C  0.96809703  0.62314409  0.37272818     0.19000
F1631       F  0.99740951  0.62345757  0.36426562    -0.13800
F1632       F  0.95076967  0.65769922  0.33049183    -0.16200
F1633       F  0.92196688  0.57521942  0.42450232    -0.16200
F1634       F  0.87580416  0.62286270  0.39490967    -0.13800
C1635       C  0.96596477  0.86780917  0.34620015     0.24200
C1636       C  0.93306500  0.87017596  0.34809532    -0.23900
C1637       C  0.92333721  0.88065348  0.37447590     0.19100
C1638       C  0.94550534  0.89787393  0.39584904     0.24100
C1639       C  0.97544946  0.91164916  0.38874163    -0.23900
C1640       C  0.98727241  0.88736131  0.36725215     0.19000
F1641       F  0.01884281  0.88022484  0.36745183    -0.13800
F1642       F  0.97724447  0.84992128  0.32332381    -0.16200
F1643       F  0.93417217  0.91241526  0.41959874    -0.16200
F1644       F  0.89204328  0.88022134  0.37840503    -0.13800
C1645       C  0.97246188  0.54963162  0.88988723     0.30600
C1646       C  0.97861884  0.95320273  0.88958996     0.30600
C1647       C  0.94633556  0.52584511  0.86991937    -0.05600
C1648       C  0.00392338  0.53224646  0.87782804    -0.06400
C1649       C  0.97486262  0.52488663  0.91804279    -0.06300
C1650       C  0.94993693  0.97480687  0.87101389    -0.05600
C1651       C  0.00705124  0.97764996  0.87937856    -0.06400
C1652       C  0.97794079  0.97299559  0.91926760    -0.06300
C1653       C  0.92945873  0.96294474  0.84682176    -0.31600
N1654       N  0.91345469  0.99800695  0.83524575     0.14900
C1655       C  0.92440567  0.53956911  0.84699986    -0.31700
H1656       H  0.91817413  0.57253796  0.84130008     0.16800
C1657       C  0.03395444  0.96604486  0.86751560    -0.30600
N1658       N  0.05029181  0.00206539  0.86202936     0.13600
C1659       C  0.03154462  0.54582451  0.86624592    -0.30600
C1660       C  0.97960240  0.95802107  0.94685805    -0.30900
N1661       N  0.98004628  0.49951730  0.96220059     0.14100
H1662       H  0.98054918  0.92431652  0.95338623     0.16700
C1663       C  0.97722940  0.53629441  0.94636383    -0.30900
H1664       H  0.97624165  0.56900713  0.95475963     0.16700
H1665       H  0.03823371  0.57905011  0.86277115     0.16700
H1666       H  0.92876554  0.93277282  0.83611720     0.16800
H1667       H  0.04108045  0.93393684  0.86239623     0.16700
Zr1668     Zr  0.81986030  0.68206984  0.79470908     2.17500
O1669       O  0.79403153  0.63556468  0.82619618    -0.50700
O1670       O  0.81712477  0.60962968  0.77002597    -0.73900
O1671       O  0.76268329  0.70555794  0.79486738    -0.80700
O1672       O  0.89911869  0.64361808  0.81858569    -0.82500
O1673       O  0.75617024  0.77399177  0.77679972    -0.78100
O1674       O  0.85792650  0.66743598  0.83926725    -0.89700
O1675       O  0.83621199  0.61746903  0.72769887    -0.75700
O1676       O  0.80405799  0.71673920  0.74957587    -0.85200
O1677       O  0.86142600  0.66439363  0.76630736    -0.84900
O1678       O  0.81313061  0.75962234  0.80270190    -0.71600
O1679       O  0.86577080  0.71821724  0.80997340    -0.83800
Zr1680     Zr  0.89280707  0.80889191  0.75809092     2.26400
Zr1681     Zr  0.80344779  0.79510170  0.75650255     2.06300
Zr1682     Zr  0.90776596  0.69883514  0.78583025     2.10000
Zr1683     Zr  0.84536620  0.69817270  0.72192346     1.78800
O1684       O  0.95276154  0.65162646  0.80358276    -0.92600
O1685       O  0.79115431  0.68990968  0.69702078    -0.40400
O1686       O  0.89033931  0.73472924  0.74524879    -0.77000
O1687       O  0.84603977  0.77723167  0.72980009    -0.95700
O1688       O  0.84946573  0.82449009  0.78447569    -0.89000
O1689       O  0.90463764  0.77040720  0.80223825    -0.91800
C1690       C  0.82662461  0.59314482  0.74730849     1.01900
C1691       C  0.88704598  0.65295188  0.84087186     1.14800
C1692       C  0.74575809  0.74056642  0.78863300     1.05600
O1693       O  0.78359320  0.78377516  0.70641857    -0.94000
O1694       O  0.81540796  0.87511161  0.75302459    -0.89700
O1695       O  0.86853224  0.88288132  0.75102774    -0.82900
C1696       C  0.84011272  0.89934645  0.75071532     1.12300
O1697       O  0.83574780  0.76679541  0.86932457    -0.96000
Zr1698     Zr  0.86125819  0.78619053  0.82806834     1.88900
O1699       O  0.92664198  0.84583518  0.79650045    -0.72600
O1700       O  0.75699429  0.84272096  0.74443399    -0.51900
O1701       O  0.83190702  0.84424741  0.84875877    -0.96600
O1702       O  0.90156426  0.76600438  0.86772343    -0.53800
O1703       O  0.88652552  0.85342452  0.82101794    -0.73100
C1704       C  0.91633713  0.85347470  0.82010920     0.99200
O1705       O  0.90937956  0.83938490  0.71532584    -0.62000
O1706       O  0.92107806  0.66371739  0.74274698    -0.56800
O1707       O  0.95123642  0.79657740  0.76497923    -0.93400
O1708       O  0.95824090  0.73452737  0.79087248    -0.91900
O1709       O  0.88091298  0.66207887  0.69252465    -0.92200
O1710       O  0.84210060  0.72287903  0.67286597    -0.91000
C1711       C  0.96889255  0.76827446  0.77987862     1.18000
H1712       H  0.87022263  0.63587270  0.76752090     0.34000
H1713       H  0.84305513  0.79202176  0.71176292     0.44800
H1714       H  0.92442019  0.77552509  0.81465860     0.38400
H1715       H  0.79765439  0.76617700  0.81535750     0.34900
H1716       H  0.79379507  0.67479786  0.67901810     0.26600
H1717       H  0.73990113  0.82439550  0.73423314     0.32600
H1718       H  0.81032535  0.84419861  0.83759477     0.38500
H1719       H  0.86702976  0.64163923  0.68038367     0.32900
H1720       H  0.94417921  0.66931884  0.74271969     0.31800
H1721       H  0.95021025  0.62468750  0.79201978     0.33500
H1722       H  0.89754101  0.78474195  0.88386846     0.32500
H1723       H  0.85919019  0.74485259  0.67302093     0.36500
H1724       H  0.91617827  0.81370922  0.70492377     0.29200
H1725       H  0.77456814  0.62457860  0.81440038     0.33400
H1726       H  0.82389549  0.73974332  0.86370557     0.36300
H1727       H  0.91978410  0.63203263  0.74603555     0.28900
H1728       H  0.88924755  0.84911316  0.70388689     0.41800
H1729       H  0.78559334  0.81247839  0.69745753     0.31800
H1730       H  0.78093958  0.66784567  0.70793038     0.39400
H1731       H  0.92247003  0.77558530  0.86281248     0.31300
H1732       H  0.74923050  0.85069822  0.76255867     0.31400
H1733       H  0.78594743  0.65571487  0.83997048     0.31600
C1734       C  0.83635671  0.95054510  0.74921561     0.30600
C1735       C  0.83048272  0.54239775  0.74614638     0.30600
C1736       C  0.85508091  0.97435557  0.77470450    -0.05600
C1737       C  0.84904866  0.97449744  0.72407866    -0.06400
C1738       C  0.80238103  0.97058472  0.74878427    -0.06300
C1739       C  0.85119890  0.52240233  0.77236441    -0.05600
C1740       C  0.84652150  0.52128825  0.72162866    -0.06400
C1741       C  0.79909025  0.51657588  0.74529539    -0.06300
C1742       C  0.87387331  0.53782351  0.79400349    -0.31600
N1743       N  0.88964010  0.99802698  0.81104882     0.14900
C1744       C  0.87750123  0.96196062  0.79701294    -0.31700
H1745       H  0.88510915  0.92913009  0.80189011     0.16800
C1746       C  0.87223826  0.53566490  0.70835899    -0.30600
N1747       N  0.88814410  0.00034117  0.70060995     0.13600
C1748       C  0.87445158  0.96376631  0.70962625    -0.30600
C1749       C  0.76804959  0.52714930  0.74873441    -0.30900
N1750       N  0.75212375  0.99009823  0.75435481     0.14100
H1751       H  0.75885014  0.55977750  0.75090918     0.16700
C1752       C  0.77199072  0.95554955  0.75213335    -0.30900
H1753       H  0.76533516  0.92227986  0.75479276     0.16700
H1754       H  0.88417386  0.93133290  0.70862598     0.16700
H1755       H  0.87940484  0.57146421  0.79862329     0.16800
H1756       H  0.88006073  0.56899883  0.70764435     0.16700
C1757       C  0.99144352  0.54439365  0.65533275     0.30600
C1758       C  0.98780828  0.95138895  0.65911029     0.30600
C1759       C  0.01947011  0.52215680  0.67459516    -0.05600
C1760       C  0.96117570  0.52491993  0.66756327    -0.06400
C1761       C  0.98989624  0.52014210  0.62692036    -0.06300
C1762       C  0.01641357  0.97245530  0.67828457    -0.05600
C1763       C  0.95943670  0.97626728  0.66922515    -0.06400
C1764       C  0.98841380  0.97106843  0.62946134    -0.06300
C1765       C  0.03338654  0.96242107  0.70481061    -0.31600
N1766       N  0.05021859  0.99712364  0.71583884     0.14900
C1767       C  0.04070749  0.53583414  0.69815636    -0.31700
H1768       H  0.04473165  0.56799485  0.70581743     0.16800
C1769       C  0.93223126  0.96480827  0.68033561    -0.30600
N1770       N  0.91663793  0.00102517  0.68736076     0.13600
C1771       C  0.93317611  0.53794815  0.67871310    -0.30600
C1772       C  0.98458324  0.95639959  0.60154830    -0.30900
N1773       N  0.98611956  0.49492739  0.58242528     0.14100
H1774       H  0.98173755  0.92296625  0.59445743     0.16700
C1775       C  0.98715397  0.53160266  0.59862890    -0.30900
H1776       H  0.98572264  0.56445995  0.59046214     0.16700
H1777       H  0.92398341  0.57046318  0.68024256     0.16700
H1778       H  0.02954486  0.93529467  0.71766340     0.16800
H1779       H  0.92415475  0.93252784  0.68341643     0.16700
Zr1780     Zr  0.14332959  0.68045616  0.75081076     2.17500
O1781       O  0.16679397  0.63436326  0.71702789    -0.50700
O1782       O  0.14648130  0.60859556  0.77431248    -0.73900
O1783       O  0.20159713  0.69683532  0.75171633    -0.80700
O1784       O  0.06482344  0.64106995  0.73519336    -0.82500
O1785       O  0.21074536  0.76313875  0.77270643    -0.78100
O1786       O  0.10170176  0.66074494  0.70913411    -0.89700
O1787       O  0.12999378  0.61847757  0.81759770    -0.75700
O1788       O  0.16014951  0.71539936  0.79595705    -0.85200
O1789       O  0.10135920  0.66871764  0.77964251    -0.84900
O1790       O  0.15290740  0.75763457  0.74390961    -0.71600
O1791       O  0.09677137  0.71743459  0.72966650    -0.83800
Zr1792     Zr  0.07615490  0.81344979  0.78981275     2.26400
Zr1793     Zr  0.16385508  0.79378888  0.78992666     2.06300
Zr1794     Zr  0.05518187  0.70639477  0.75915271     2.10000
Zr1795     Zr  0.11926429  0.69956598  0.82410405     1.78800
O1796       O  0.01219358  0.72683771  0.72135266    -0.92600
O1797       O  0.17076455  0.68998119  0.85371684    -0.40400
O1798       O  0.07613379  0.73902917  0.80041067    -0.77000
O1799       O  0.12202020  0.77868230  0.81761647    -0.95700
O1800       O  0.11902860  0.82597520  0.76267348    -0.89000
O1801       O  0.06351921  0.77723152  0.74512791    -0.91800
C1802       C  0.13828432  0.59322329  0.79751200     1.01900
C1803       C  0.07326973  0.64597174  0.71100233     1.14800
C1804       C  0.22005391  0.72933903  0.76010226     1.05600
O1805       O  0.18712156  0.78704596  0.83948380    -0.94000
O1806       O  0.15167750  0.87478992  0.79548819    -0.89700
O1807       O  0.09924056  0.88502596  0.79956142    -0.82900
C1808       C  0.12740944  0.90009840  0.79900484     1.12300
O1809       O  0.13325334  0.76903361  0.67748966    -0.96000
Zr1810     Zr  0.10686348  0.78959480  0.71822394     1.88900
O1811       O  0.04481893  0.85470786  0.75176441    -0.72600
O1812       O  0.20881764  0.84322140  0.79003897    -0.51900
O1813       O  0.13912687  0.84473073  0.69907767    -0.96600
O1814       O  0.06679397  0.77224040  0.67781025    -0.53800
O1815       O  0.08433570  0.85843970  0.72620449    -0.73100
C1816       C  0.05471859  0.86004289  0.72772254     0.99200
O1817       O  0.05872848  0.84176246  0.83310409    -0.62000
O1818       O  0.02333351  0.64574284  0.77259148    -0.56800
O1819       O  0.01824957  0.80711495  0.78199151    -0.93400
O1820       O  0.01926136  0.73593237  0.78963324    -0.91900
O1821       O  0.07742981  0.66528842  0.84686812    -0.92200
O1822       O  0.11945175  0.72144156  0.87354313    -0.91000
C1823       C  0.00381989  0.77123191  0.78397202     1.18000
H1824       H  0.09329254  0.63962050  0.78057644     0.34000
H1825       H  0.12608645  0.79308349  0.83583410     0.44800
H1826       H  0.04333472  0.78505560  0.73443285     0.38400
H1827       H  0.16944740  0.76230826  0.73204178     0.34900
H1828       H  0.16718765  0.66626648  0.86695677     0.26600
H1829       H  0.22776931  0.82820670  0.80018528     0.32600
H1830       H  0.15316566  0.85603126  0.71586347     0.38500
H1831       H  0.08898121  0.64538240  0.86109656     0.32900
H1832       H  0.03373120  0.63691766  0.79164685     0.31800
H1833       H  0.99298325  0.73204106  0.73081238     0.33500
H1834       H  0.07028353  0.79265023  0.66251385     0.32500
H1835       H  0.10475653  0.74678673  0.87284196     0.36500
H1836       H  0.04968727  0.81613890  0.84167484     0.29200
H1837       H  0.18640429  0.62168637  0.72776174     0.33400
H1838       H  0.14332670  0.74045867  0.68261693     0.36300
H1839       H  0.00254318  0.65850001  0.77585329     0.28900
H1840       H  0.07876222  0.84794138  0.84584162     0.41800
H1841       H  0.21037820  0.78342243  0.83893150     0.31800
H1842       H  0.18517886  0.67679889  0.84116863     0.39400
H1843       H  0.04574374  0.78022485  0.68338120     0.31300
H1844       H  0.21291133  0.84549422  0.77005143     0.31400
H1845       H  0.17457306  0.65479546  0.70346384     0.31600
C1846       C  0.13037989  0.95105696  0.80053879     0.30600
C1847       C  0.13504409  0.54240645  0.79906823     0.30600
C1848       C  0.11026810  0.97446446  0.77550252    -0.05600
C1849       C  0.11865318  0.97533163  0.82619216    -0.06400
C1850       C  0.16361074  0.97064226  0.79997061    -0.06300
C1851       C  0.11302613  0.52143319  0.77383741    -0.05600
C1852       C  0.12018115  0.52355367  0.82461623    -0.06400
C1853       C  0.16626251  0.51529530  0.79894095    -0.06300
C1854       C  0.09153629  0.53578726  0.75095480    -0.31600
N1855       N  0.07366600  0.99768891  0.74035449     0.14900
C1856       C  0.08660930  0.96196444  0.75422413    -0.31700
H1857       H  0.07883171  0.92938264  0.74991581     0.16800
C1858       C  0.09478422  0.54014050  0.83782125    -0.30600
N1859       N  0.07915925  0.00137555  0.84937835     0.13600
C1860       C  0.09355712  0.96476089  0.84081466    -0.30600
C1861       C  0.19720630  0.52360208  0.79391042    -0.30900
N1862       N  0.21332866  0.98826038  0.79414740     0.14100
H1863       H  0.20692322  0.55548755  0.79087391     0.16700
C1864       C  0.19360717  0.95450916  0.79700677    -0.30900
H1865       H  0.20042138  0.92091901  0.79562196     0.16700
H1866       H  0.08446947  0.93223123  0.84214224     0.16700
H1867       H  0.08763931  0.56903211  0.74451465     0.16800
H1868       H  0.08707741  0.57370810  0.83772654     0.16700
C1869       C  0.48974367  0.79870922  0.65966683     0.30600
C1870       C  0.49082774  0.70941301  0.66077472     0.30600
C1871       C  0.51725392  0.77740777  0.67981191    -0.05600
C1872       C  0.45968422  0.77716999  0.67047553    -0.06400
C1873       C  0.49008962  0.77515157  0.63108973    -0.06300
C1874       C  0.51857367  0.73267989  0.67975669    -0.05600
C1875       C  0.46101134  0.73123337  0.67109700    -0.06400
C1876       C  0.49098938  0.73026780  0.63162143    -0.06300
C1877       C  0.54237879  0.72151564  0.70173999    -0.31600
N1878       N  0.55434323  0.75725018  0.71579186     0.14900
C1879       C  0.53821195  0.79152669  0.70336582    -0.31700
H1880       H  0.53962633  0.82301074  0.71277814     0.16800
C1881       C  0.43511001  0.71698817  0.68334081    -0.30600
N1882       N  0.41713505  0.75125077  0.68962400     0.13600
C1883       C  0.43136732  0.78826571  0.68159319    -0.30600
C1884       C  0.48980808  0.71605160  0.60384646    -0.30900
N1885       N  0.48808509  0.75130928  0.58649639     0.14100
H1886       H  0.49042027  0.68253514  0.59689311     0.16700
C1887       C  0.48704266  0.78737154  0.60298861    -0.30900
H1888       H  0.48406190  0.82033684  0.59514025     0.16700
H1889       H  0.42160740  0.82036795  0.68379097     0.16700
H1890       H  0.55044763  0.69043978  0.70813209     0.16800
H1891       H  0.42993615  0.68442866  0.68869460     0.16700
Zr1892     Zr  0.64268922  0.93837757  0.75391833     2.17500
O1893       O  0.66627097  0.89165642  0.72051301    -0.50700
O1894       O  0.64671958  0.86670377  0.77752680    -0.73900
O1895       O  0.70060617  0.95723816  0.75293536    -0.80700
O1896       O  0.56408633  0.89726652  0.74037123    -0.82500
O1897       O  0.71018019  0.52283856  0.77138977    -0.78100
O1898       O  0.60004409  0.91726649  0.71328405    -0.89700
O1899       O  0.63150071  0.87670562  0.82127724    -0.75700
O1900       O  0.66107259  0.97501617  0.79816900    -0.85200
O1901       O  0.60222578  0.92602572  0.78437523    -0.84900
O1902       O  0.65027900  0.51487097  0.74316718    -0.71600
O1903       O  0.59466420  0.97334372  0.73459999    -0.83800
Zr1904     Zr  0.57553602  0.57074340  0.79184181     2.26400
Zr1905     Zr  0.66293341  0.55367459  0.78797156     2.06300
Zr1906     Zr  0.55473914  0.96190603  0.76565341     2.10000
Zr1907     Zr  0.62197900  0.95797377  0.82813537     1.78800
O1908       O  0.50917758  0.98168075  0.73029357    -0.92600
O1909       O  0.67410508  0.94624430  0.85614149    -0.40400
O1910       O  0.57743282  0.99588638  0.80603273    -0.77000
O1911       O  0.62324137  0.53761478  0.81798796    -0.95700
O1912       O  0.61626446  0.58332299  0.76226597    -0.89000
O1913       O  0.56097316  0.53327208  0.74731465    -0.91800
C1914       C  0.63896360  0.85140324  0.80088855     1.01900
C1915       C  0.57190070  0.90193508  0.71585661     1.14800
C1916       C  0.71947692  0.98958618  0.76103234     1.05600
O1917       O  0.69361222  0.55506421  0.83510358    -0.94000
O1918       O  0.65023952  0.63370712  0.79709060    -0.89700
O1919       O  0.59790213  0.64349019  0.80175912    -0.82900
C1920       C  0.62610233  0.65887147  0.80129016     1.12300
O1921       O  0.62999213  0.52650313  0.67774011    -0.96000
Zr1922     Zr  0.60304187  0.54493409  0.71853672     1.88900
O1923       O  0.54319739  0.61212676  0.75449046    -0.72600
O1924       O  0.70018082  0.60655140  0.77288810    -0.51900
O1925       O  0.63393389  0.59668018  0.69477500    -0.96600
O1926       O  0.56093265  0.52422932  0.68046767    -0.53800
O1927       O  0.58323328  0.61397705  0.72981733    -0.73100
C1928       C  0.55354072  0.61647920  0.73061906     0.99200
O1929       O  0.55894181  0.59700124  0.83613648    -0.62000
O1930       O  0.52274766  0.90173642  0.77952888    -0.56800
O1931       O  0.51810714  0.56005870  0.78750319    -0.93400
O1932       O  0.52258713  0.98781993  0.80017273    -0.91900
O1933       O  0.58195283  0.92516642  0.85380819    -0.92200
O1934       O  0.62355196  0.98076820  0.87750792    -0.91000
C1935       C  0.50590432  0.52276429  0.79012869     1.18000
H1936       H  0.59396196  0.89710023  0.78538711     0.34000
H1937       H  0.62838016  0.55208481  0.83604168     0.44800
H1938       H  0.54070527  0.54109767  0.73765737     0.38400
H1939       H  0.66626783  0.51958843  0.73077549     0.34900
H1940       H  0.68468650  0.92363755  0.84568161     0.26600
H1941       H  0.72137405  0.60043940  0.78388116     0.32600
H1942       H  0.65141646  0.60578891  0.70961049     0.38500
H1943       H  0.59401830  0.90375460  0.86664893     0.32900
H1944       H  0.52935083  0.89823610  0.80018899     0.31800
H1945       H  0.48995395  0.97877554  0.74000068     0.33500
H1946       H  0.56428841  0.54160689  0.66365881     0.32500
H1947       H  0.61296842  0.50195518  0.87671882     0.36500
H1948       H  0.55044767  0.57101016  0.84475348     0.29200
H1949       H  0.68313544  0.87474222  0.73229195     0.33400
H1950       H  0.63371039  0.49470236  0.67925048     0.36300
H1951       H  0.50057771  0.91311910  0.77787191     0.28900
H1952       H  0.57916010  0.60349318  0.84853278     0.41800
H1953       H  0.69936171  0.58603295  0.83836309     0.31800
H1954       H  0.68633858  0.97309801  0.85394451     0.39400
H1955       H  0.54039556  0.53447316  0.68605238     0.31300
H1956       H  0.70244042  0.59947087  0.75289189     0.31400
H1957       H  0.67800101  0.91135159  0.70916376     0.31600
C1958       C  0.62973974  0.71014976  0.80334510     0.30600
C1959       C  0.63524948  0.80078065  0.80235974     0.30600
C1960       C  0.61063304  0.73408810  0.77803009    -0.05600
C1961       C  0.61811965  0.73601072  0.82871599    -0.06400
C1962       C  0.66367306  0.72836337  0.80294676    -0.06300
C1963       C  0.61318248  0.77946521  0.77720762    -0.05600
C1964       C  0.62071329  0.78220690  0.82808720    -0.06400
C1965       C  0.66635382  0.77375956  0.80228401    -0.06300
C1966       C  0.59255266  0.79301728  0.75349773    -0.31600
N1967       N  0.57747650  0.75759998  0.74054804     0.14900
C1968       C  0.58845261  0.72179890  0.75555618    -0.31700
H1969       H  0.58027063  0.68920570  0.75124774     0.16800
C1970       C  0.59689301  0.79927789  0.84299282    -0.30600
N1971       N  0.58113259  0.76621773  0.85364947     0.13600
C1972       C  0.59317702  0.72813451  0.84415753    -0.30600
C1973       C  0.69729514  0.78241431  0.79761429    -0.30900
N1974       N  0.71365842  0.74419643  0.79602739     0.14100
H1975       H  0.70681842  0.81434647  0.79435121     0.16700
C1976       C  0.69344297  0.71113860  0.79956295    -0.30900
H1977       H  0.69973461  0.67725419  0.79840407     0.16700
H1978       H  0.58252346  0.69649800  0.84557259     0.16700
H1979       H  0.58894128  0.82597091  0.74637599     0.16800
H1980       H  0.58959088  0.83295599  0.84362440     0.16700
C1981       C  0.47285024  0.79975746  0.89448560     0.30600
C1982       C  0.48434807  0.71258679  0.89006865     0.30600
C1983       C  0.44921199  0.77430096  0.87306928    -0.05600
C1984       C  0.50613951  0.78749652  0.88381887    -0.06400
C1985       C  0.47463241  0.77279941  0.92226357    -0.06300
C1986       C  0.45434034  0.73056426  0.87132578    -0.05600
C1987       C  0.51136034  0.74247171  0.88414488    -0.06400
C1988       C  0.47996955  0.72812594  0.92023007    -0.06300
C1989       C  0.43068316  0.71468136  0.85053652    -0.31600
N1990       N  0.41228160  0.74799688  0.83889411     0.14900
C1991       C  0.42360486  0.78476096  0.85247597    -0.31700
H1992       H  0.41469819  0.81681757  0.84725104     0.16800
C1993       C  0.54143269  0.73319963  0.87870649    -0.30600
N1994       N  0.55418890  0.76897856  0.86893737     0.13600
C1995       C  0.53361631  0.80326099  0.87258683    -0.30600
C1996       C  0.48669908  0.71304765  0.94799641    -0.30900
N1997       N  0.48427136  0.74670545  0.96628518     0.14100
H1998       H  0.49487060  0.68090987  0.95475452     0.16700
C1999       C  0.47807355  0.78342864  0.95079984    -0.30900
H2000       H  0.47638207  0.81573946  0.95966992     0.16700
H2001       H  0.53765496  0.83643385  0.86661611     0.16700
H2002       H  0.42721047  0.68172848  0.84384938     0.16800
H2003       H  0.55204718  0.70105446  0.87947473     0.16700
Zr2004     Zr  0.31953389  0.92599797  0.79747535     2.17500
O2005       O  0.29148059  0.88055270  0.82782057    -0.50700
O2006       O  0.31762006  0.85240064  0.77461812    -0.73900
O2007       O  0.26241757  0.94998382  0.79479064    -0.80700
O2008       O  0.39678705  0.88639034  0.82356824    -0.82500
O2009       O  0.25733485  0.51575844  0.77546816    -0.78100
O2010       O  0.35546494  0.91177258  0.84329775    -0.89700
O2011       O  0.33795576  0.85987405  0.73291896    -0.75700
O2012       O  0.30591450  0.96037764  0.75195466    -0.85200
O2013       O  0.36308589  0.90775487  0.77122001    -0.84900
O2014       O  0.31265203  0.50232299  0.80311372    -0.71600
O2015       O  0.36676164  0.96097047  0.81765453    -0.83800
Zr2016     Zr  0.39459992  0.55229771  0.76102439     2.26400
Zr2017     Zr  0.30524869  0.53715081  0.75641529     2.06300
Zr2018     Zr  0.40968171  0.94159515  0.79156205     2.10000
Zr2019     Zr  0.34855533  0.94043774  0.72643072     1.78800
O2020       O  0.45456172  0.89532627  0.81097531    -0.92600
O2021       O  0.29456837  0.93383872  0.70078438    -0.40400
O2022       O  0.39279920  0.97745373  0.75090238    -0.77000
O2023       O  0.34945684  0.51823962  0.73196356    -0.95700
O2024       O  0.34989446  0.56929646  0.78531000    -0.89000
O2025       O  0.40681466  0.51446577  0.80525408    -0.91800
C2026       C  0.32782494  0.83561405  0.75236870     1.01900
C2027       C  0.38430755  0.89609759  0.84567312     1.14800
C2028       C  0.24585471  0.98508534  0.78809706     1.05600
O2029       O  0.28747278  0.52664999  0.70587237    -0.94000
O2030       O  0.31765959  0.61766496  0.75390345    -0.89700
O2031       O  0.37093448  0.62648419  0.75338756    -0.82900
C2032       C  0.34237365  0.64255741  0.75259529     1.12300
O2033       O  0.33663794  0.48522897  0.86178545    -0.96000
Zr2034     Zr  0.36048244  0.52966099  0.82786030     1.88900
O2035       O  0.42590035  0.58894969  0.80079271    -0.72600
O2036       O  0.25855192  0.58363353  0.74262366    -0.51900
O2037       O  0.32781876  0.59154624  0.83865696    -0.96600
O2038       O  0.38616993  0.50817385  0.87495047    -0.53800
O2039       O  0.39887292  0.58546291  0.83875960    -0.73100
C2040       C  0.42361042  0.59455436  0.82725838     0.99200
O2041       O  0.41423714  0.58277980  0.71944544    -0.62000
O2042       O  0.42305604  0.90556209  0.74881649    -0.56800
O2043       O  0.45303953  0.54410528  0.77055915    -0.93400
O2044       O  0.46029045  0.97927909  0.79780821    -0.91900
O2045       O  0.38366589  0.90226845  0.69759599    -0.92200
O2046       O  0.35028663  0.96278341  0.67743289    -0.91000
C2047       C  0.47136324  0.51579616  0.78468373     1.18000
H2048       H  0.37135842  0.87871246  0.77266751     0.34000
H2049       H  0.34719473  0.53230942  0.71368974     0.44800
H2050       H  0.42605905  0.51826369  0.81841715     0.38400
H2051       H  0.29648735  0.50832815  0.81521140     0.34900
H2052       H  0.29748057  0.92039669  0.68231513     0.26600
H2053       H  0.24188939  0.56471914  0.73234979     0.32600
H2054       H  0.33622749  0.59944608  0.85846801     0.38500
H2055       H  0.36954186  0.88175764  0.68573506     0.32900
H2056       H  0.44582005  0.91258327  0.74813687     0.31800
H2057       H  0.45246607  0.86810760  0.79968102     0.33500
H2058       H  0.38266319  0.53311628  0.88747715     0.32500
H2059       H  0.36932090  0.48508231  0.67766460     0.36500
H2060       H  0.42102450  0.55718696  0.70895625     0.29200
H2061       H  0.27326218  0.86854185  0.81494388     0.33400
H2062       H  0.31873392  0.50308118  0.86716376     0.36300
H2063       H  0.42300508  0.87399651  0.75286435     0.28900
H2064       H  0.39488631  0.59379791  0.70742784     0.43000
H2065       H  0.29104575  0.55506023  0.69710177     0.31800
H2066       H  0.28421175  0.91070471  0.71071342     0.39400
H2067       H  0.40942266  0.50825679  0.87375868     0.31300
H2068       H  0.25016431  0.59194432  0.76041179     0.31400
H2069       H  0.28164983  0.90114426  0.84027435     0.31600
C2070       C  0.33826803  0.69383514  0.75159118     0.30600
C2071       C  0.33179737  0.78464175  0.75141396     0.30600
C2072       C  0.35573581  0.71857573  0.77764324    -0.05600
C2073       C  0.35111730  0.71865505  0.72676635    -0.06400
C2074       C  0.30371671  0.71242905  0.75025023    -0.06300
C2075       C  0.35247104  0.76408765  0.77758520    -0.05600
C2076       C  0.34791644  0.76476659  0.72680766    -0.06400
C2077       C  0.30083859  0.75795224  0.75008606    -0.06300
C2078       C  0.37238639  0.77942469  0.80106322    -0.31600
N2079       N  0.38771646  0.74515264  0.81523221     0.14900
C2080       C  0.37761211  0.70792871  0.80107248    -0.31700
H2081       H  0.38638150  0.67553909  0.80655826     0.16800
C2082       C  0.37213075  0.78105076  0.71263713    -0.30600
N2083       N  0.38902172  0.74765089  0.70313938     0.13600
C2084       C  0.37695323  0.70989410  0.71231280    -0.30600
C2085       C  0.26951597  0.76778975  0.75261953    -0.30900
N2086       N  0.25279973  0.73030922  0.75413621     0.14100
H2087       H  0.25988506  0.80022268  0.75460983     0.16700
C2088       C  0.27339656  0.69634405  0.75276637    -0.30900
H2089       H  0.26722396  0.66291269  0.75551542     0.16700
H2090       H  0.38783659  0.67817033  0.71115051     0.16700
H2091       H  0.37634334  0.81316117  0.80654026     0.16800
H2092       H  0.37915499  0.81467443  0.71209312     0.16700
C2093       C  0.42574753  0.84303861  0.90775573     0.24200
C2094       C  0.45663001  0.84395235  0.89810245    -0.23900
C2095       C  0.46354842  0.88038774  0.88249424     0.19100
C2096       C  0.43845801  0.90801784  0.87120783     0.24100
C2097       C  0.40641774  0.89596938  0.87258743    -0.23900
C2098       C  0.40050910  0.86803598  0.89410729     0.19000
F2099       F  0.36995576  0.85838017  0.89779386    -0.13800
F2100       F  0.41745576  0.81059081  0.92456093    -0.16200
F2101       F  0.44479817  0.94191772  0.85470509    -0.16200
F2102       F  0.49314347  0.88619802  0.87510598    -0.13800
C2103       C  0.47124675  0.63394975  0.89361836     0.24200
C2104       C  0.48909208  0.66556962  0.88157367    -0.23900
C2105       C  0.49529080  0.65818445  0.85297287     0.19100
C2106       C  0.47690529  0.62902293  0.83570272     0.24100
C2107       C  0.45188505  0.60819919  0.84638076    -0.23900
C2108       C  0.45217670  0.60588939  0.87597820     0.19000
F2109       F  0.43104947  0.58107136  0.88773082    -0.13800
F2110       F  0.46649070  0.63561904  0.92115681    -0.16200
F2111       F  0.47928759  0.62881206  0.80745658    -0.16200
F2112       F  0.51143935  0.68668071  0.83860190    -0.13800
C2113       C  0.47245410  0.71946809  0.50923676     0.24200
C2114       C  0.48691843  0.74440530  0.99687529    -0.23900
C2115       C  0.50337379  0.78586395  0.51366542     0.19100
C2116       C  0.50437044  0.78435015  0.54319332     0.24100
C2117       C  0.48843026  0.75121628  0.55610504    -0.23900
C2118       C  0.47265741  0.71856987  0.53874337     0.19000
F2119       F  0.45628421  0.68672665  0.55012080    -0.13800
F2120       F  0.44381333  0.69360590  0.99390008    -0.16200
F2121       F  0.52164198  0.81485417  0.55919588    -0.16200
F2122       F  0.51841663  0.81880245  0.50200634    -0.13800
C2123       C  0.48956510  0.87431564  0.67915613     0.24200
C2124       C  0.49833659  0.84710324  0.65800882    -0.23900
C2125       C  0.52825107  0.85687985  0.64813467     0.19100
C2126       C  0.55180787  0.88089429  0.66520149     0.24100
C2127       C  0.54566152  0.89552483  0.69179381    -0.23900
C2128       C  0.51335909  0.89473207  0.69746945     0.19000
F2129       F  0.50562398  0.90354400  0.72352938    -0.13800
F2130       F  0.45986069  0.87285180  0.68671386    -0.16200
F2131       F  0.58192874  0.88241510  0.65811774    -0.16200
F2132       F  0.53807489  0.83514940  0.62593634    -0.13800
C2133       C  0.47948939  0.63509022  0.67979203     0.24200
C2134       C  0.49425638  0.65980584  0.66049703    -0.23900
C2135       C  0.52450132  0.64467949  0.65537904     0.19100
C2136       C  0.54388675  0.62445090  0.67759637     0.24100
C2137       C  0.53170175  0.61728939  0.70359790    -0.23900
C2138       C  0.49844491  0.61711678  0.70317431     0.19000
F2139       F  0.48471137  0.60049488  0.72498612    -0.13800
F2140       F  0.44855189  0.62283515  0.67351800    -0.16200
F2141       F  0.57549507  0.62072397  0.67551664    -0.16200
F2142       F  0.53867410  0.66076656  0.63364587    -0.13800
C2143       C  0.04313762  0.87188453  0.67526819     0.24200
C2144       C  0.03211465  0.86185820  0.70122863    -0.23900
C2145       C  0.99890701  0.85899672  0.70162178     0.19100
C2146       C  0.97834096  0.87754471  0.67939000     0.24100
C2147       C  0.99125668  0.90182358  0.65883601    -0.23900
C2148       C  0.02162794  0.88780387  0.65283378     0.19000
F2149       F  0.03383782  0.90264354  0.62969652    -0.13800
F2150       F  0.07484147  0.87279928  0.67281112    -0.16200
F2151       F  0.94679096  0.86840614  0.67626052    -0.16200
F2152       F  0.98665564  0.84062265  0.72368444    -0.13800
C2153       C  0.99128801  0.62107772  0.67294254     0.24200
C2154       C  0.00045906  0.59241921  0.65281961    -0.23900
C2155       C  0.03060094  0.60115162  0.64320892     0.19100
C2156       C  0.05393647  0.62574930  0.66016107     0.24100
C2157       C  0.04738957  0.64087321  0.68656082    -0.23900
C2158       C  0.01491032  0.64050700  0.69181226     0.19000
F2159       F  0.00651553  0.64915308  0.71770079    -0.13800
F2160       F  0.96092980  0.62240404  0.67892355    -0.16200
F2161       F  0.08426789  0.62672692  0.65356401    -0.16200
F2162       F  0.04071184  0.57759093  0.62187783    -0.13800
C2163       C  0.00337971  0.96868921  0.51054490     0.24200
C2164       C  0.98118296  0.49777898  0.99262175    -0.23900
C2165       C  0.96590362  0.46226976  0.50533313     0.19100
C2166       C  0.96716148  0.46240344  0.53505365     0.24100
C2167       C  0.98553453  0.49352756  0.55183690    -0.23900
C2168       C  0.00337297  0.96575968  0.54000577     0.19000
F2169       F  0.02510477  0.93959455  0.55546228    -0.13800
F2170       F  0.02484570  0.94471148  0.49810319    -0.16200
F2171       F  0.94921051  0.43330201  0.54725558    -0.16200
F2172       F  0.94272113  0.44021387  0.98894396    -0.13800
C2173       C  0.94193294  0.65970694  0.86670217     0.24200
C2174       C  0.90937658  0.64949900  0.86767081    -0.23900
C2175       C  0.90232313  0.62144683  0.88877317     0.19100
C2176       C  0.92684412  0.59591162  0.90308182     0.24100
C2177       C  0.95791396  0.59498578  0.89364706    -0.23900
C2178       C  0.96619001  0.63096991  0.87838696     0.19000
F2179       F  0.99631330  0.63537356  0.87187304    -0.13800
F2180       F  0.94957709  0.69342382  0.85064424    -0.16200
F2181       F  0.91736395  0.56367682  0.91948872    -0.16200
F2182       F  0.87141704  0.61203431  0.89134560    -0.13800
C2183       C  0.97169354  0.85815430  0.84733380     0.24200
C2184       C  0.93833967  0.85781943  0.84693506    -0.23900
C2185       C  0.92599396  0.86778670  0.87245196     0.19100
C2186       C  0.94538983  0.88853082  0.89442521     0.24100
C2187       C  0.97553367  0.90364839  0.88911798    -0.23900
C2188       C  0.99052553  0.87903940  0.86973875     0.19000
F2189       F  0.02231774  0.87092214  0.87464514    -0.13800
F2190       F  0.98569062  0.84004084  0.82604342    -0.16200
F2191       F  0.93104903  0.90532238  0.91601958    -0.16200
F2192       F  0.89427968  0.86492936  0.87443364    -0.13800
loop_ 
_geom_bond_atom_site_label_1 
_geom_bond_atom_site_label_2 
_geom_bond_distance 
_geom_bond_site_symmetry_2 
_ccdc_geom_bond_type 
C1            C3   1.546       .  S
C1            C5   1.537       .  S
C1            C4   1.598   1_655  S
C1          C533   1.539       .  S
C2            C6   1.553       .  S
C2            C8   1.541       .  S
C2            C7   1.539   1_655  S
C2          C543   1.530       .  S
C3           C11   1.396       .  A
C3         C1102   1.373   1_545  A
C4           C15   1.414       .  A
C4         C1103   1.415   1_545  A
C5           C19   1.384       .  A
C5         C1104   1.381   1_545  A
C6            C9   1.398       .  A
C6         C1099   1.378       .  A
C7           C13   1.370       .  A
C7         C1100   1.413       .  A
C8           C16   1.389       .  A
C8         C1101   1.376       .  A
C9           N10   1.348       .  A
C9           H22   1.061       .  S
N10        C1107   1.342       .  A
N10          N99   1.424       .  S
C11        N1106   1.344       .  A
C11          H12   1.058       .  S
C13          N14   1.349       .  A
C13          H23   1.065       .  S
N14        C1111   1.374       .  A
N14         N215   1.430       .  S
C15        N1110   1.371       .  A
C15          H21   1.077       .  S
C16        N1113   1.362       .  A
C16          H18   1.082       .  S
N17          C19   1.359       .  A
N17        C1112   1.355   1_545  A
N17         C520   1.442   1_545  S
C19          H20   1.082       .  S
Zr24         O25   2.439       .  S
Zr24         O26   2.507       .  S
Zr24         O27   2.521       .  S
Zr24         O30   2.560       .  S
Zr24         O32   2.423       .  S
Zr24         O33   2.397       .  S
Zr24         O34   2.452       .  S
Zr24         O35   2.379       .  S
O25          H81   0.990       .  S
O25          H89   0.990       .  S
O26          C46   1.299       .  A
O27          C48   1.303       .  A
O28         Zr38   2.352       .  S
O28          C47   1.251       .  A
O29         Zr37   2.426       .  S
O29          C48   1.282       .  A
O30          C47   1.302       .  A
O31         Zr39   2.539       .  S
O31          C46   1.305       .  A
O32         Zr37   2.440       .  S
O32         Zr39   2.381       .  S
O33         Zr38   2.339       .  S
O33         Zr39   2.337       .  S
O33          H68   0.961       .  S
O34         Zr37   2.440       .  S
O34         Zr54   2.363       .  S
O34          H71   0.964       .  S
O35         Zr38   2.403       .  S
O35         Zr54   2.358       .  S
Zr36         O61   2.430       .  S
Zr36         O55   2.434       .  S
Zr36         O63   2.462       .  S
Zr36         O51   2.462       .  S
Zr36         O43   2.434       .  S
Zr36         O44   2.398       .  S
Zr36         O45   2.383       .  S
Zr36         O42   2.333       .  S
Zr37         O56   2.441       .  S
Zr37         O49   2.436       .  S
Zr37         O50   2.560       .  S
Zr37         O43   2.396       .  S
Zr37         O44   2.358       .  S
Zr38         O40   2.453       .  S
Zr38         O62   2.444       .  S
Zr38         O64   2.360       .  S
Zr38         O45   2.299       .  S
Zr38         O42   2.283       .  S
Zr39         O65   2.437       .  S
Zr39         O66   2.438       .  S
Zr39         O41   2.442       .  S
Zr39         O43   2.453       .  S
Zr39         O42   2.339       .  S
O40          H77   0.990       .  S
O41          H72   0.990       .  S
O41          H86   0.990       .  S
O43          H69   0.967       .  S
O44         Zr54   2.384       .  S
O45         Zr54   2.392       .  S
O45          H70   0.958       .  S
C46          C91   1.574       .  S
C47         C530   1.500       .  S
C48         N330   1.449       .  S
O49          H85   0.990       .  S
O50          C52   1.309       .  A
O51          C52   1.288       .  A
C52          C90   1.585       .  S
O53         Zr54   2.436       .  S
O53          H82   0.990       .  S
Zr54         O57   2.436       .  S
Zr54         O58   2.442       .  S
Zr54         O59   2.379       .  S
O55          C60   1.276       .  A
O56          H73   0.990       .  S
O56          H88   0.991       .  S
O57          H74   0.990       .  S
O58          H78   0.989       .  S
O58          H87   0.987       .  S
O59          C60   1.264       .  A
C60         C540   1.474       .  S
O61          H80   0.990       .  S
O61          H84   0.990       .  S
O62          H76   0.990       .  S
O62          H83   0.990       .  S
O63          C67   1.289       .  A
O64          C67   1.271       .  A
O65          H75   0.990       .  S
O66          H79   0.990       .  S
C67         C179   1.449       .  S
C90          C92   1.545       .  S
C90          C94   1.544       .  S
C90          C93   1.563       .  S
C91          C95   1.556       .  S
C91          C97   1.549       .  S
C91          C96   1.561       .  S
C92         C100   1.376       .  A
C92        C1191   1.399       .  A
C93         C104   1.384       .  A
C93        C1192   1.431       .  A
C94         C108   1.389       .  A
C94        C1193   1.402       .  A
C95          C98   1.391       .  A
C95        C1188   1.400   1_545  A
C96         C102   1.403       .  A
C96        C1189   1.424   1_545  A
C97         C105   1.379       .  A
C97        C1190   1.400   1_545  A
C98        N1195   1.366       .  A
C98         H111   1.071       .  S
N99         C100   1.356       .  A
N99        C1194   1.363       .  A
C100        H101   1.062       .  S
C102       N1199   1.361       .  A
C102        H112   1.080       .  S
N103        C104   1.362       .  A
N103       C1198   1.359       .  A
N103        N126   1.429       .  S
C104        H110   1.079       .  S
C105       N1202   1.364   1_545  A
C105        H107   1.082       .  S
N106        C108   1.357       .  A
N106       C1201   1.366       .  A
N106        C272   1.449       .  S
C108        H109   1.075       .  S
C113        C115   1.547   1_655  S
C113        C117   1.526       .  S
C113        C116   1.596       .  S
C113        C510   1.533   1_655  S
C114        C118   1.551   1_655  S
C114        C120   1.535       .  S
C114        C119   1.550       .  S
C114        C503   1.529       .  S
C115        C123   1.396       .  A
C115       C1214   1.375   1_545  A
C116        C127   1.413       .  A
C116       C1215   1.417   1_545  A
C117        C131   1.380       .  A
C117       C1216   1.375   1_545  A
C118        C121   1.397       .  A
C118       C1211   1.376       .  A
C119        C125   1.376       .  A
C119       C1212   1.415       .  A
C120        C128   1.385       .  A
C120       C1213   1.376       .  A
C121        N122   1.350       .  A
C121        H134   1.059       .  S
N122       C1219   1.346       .  A
N122        N211   1.426       .  S
C123       N1218   1.343       .  A
C123        H124   1.059       .  S
C125        N126   1.352       .  A
C125        H135   1.066       .  S
N126       C1223   1.369       .  A
C127       N1222   1.372       .  A
C127        H133   1.078       .  S
C128       N1225   1.360       .  A
C128        H130   1.082       .  S
N129        C131   1.356   1_565  A
N129       C1224   1.358       .  A
N129        C523   1.441       .  S
C131        H132   1.082       .  S
Zr136       O137   2.439       .  S
Zr136       O138   2.500       .  S
Zr136       O139   2.503       .  S
Zr136       O142   2.553       .  S
Zr136       O144   2.426       .  S
Zr136       O145   2.399       .  S
Zr136       O146   2.453       .  S
Zr136       O147   2.378       .  S
O137        H193   0.990       .  S
O137        H201   0.990       .  S
O138        C158   1.298       .  A
O139        C160   1.299       .  A
O140       Zr150   2.356       .  S
O140        C159   1.249       .  A
O141       Zr149   2.424       .  S
O141        C160   1.283       .  A
O142        C159   1.298       .  A
O143       Zr151   2.546       .  S
O143        C158   1.306       .  A
O144       Zr149   2.442       .  S
O144       Zr151   2.377       .  S
O145       Zr150   2.349       .  S
O145       Zr151   2.333       .  S
O145        H180   0.960       .  S
O146       Zr149   2.438       .  S
O146       Zr166   2.360       .  S
O146        H183   0.964       .  S
O147       Zr150   2.402       .  S
O147       Zr166   2.357       .  S
Zr148       O173   2.430       .  S
Zr148       O167   2.448       .  S
Zr148       O175   2.451       .  S
Zr148       O163   2.436       .  S
Zr148       O155   2.430       .  S
Zr148       O156   2.396       .  S
Zr148       O157   2.363       .  S
Zr148       O154   2.326       .  S
Zr149       O168   2.443       .  S
Zr149       O161   2.436       .  S
Zr149       O162   2.561       .  S
Zr149       O155   2.386       .  S
Zr149       O156   2.362       .  S
Zr150       O152   2.465       .  S
Zr150       O174   2.454       .  S
Zr150       O176   2.374       .  S
Zr150       O157   2.297       .  S
Zr150       O154   2.274       .  S
Zr151       O177   2.437       .  S
Zr151       O178   2.437       .  S
Zr151       O153   2.440       .  S
Zr151       O155   2.449       .  S
Zr151       O154   2.339       .  S
O152        H189   0.990       .  S
O153        H184   0.991       .  S
O153        H198   0.990       .  S
O155        H181   0.967       .  S
O156       Zr166   2.387       .  S
O157       Zr166   2.387       .  S
O157        H182   0.956       .  S
C158        C203   1.576       .  S
C159        C513   1.496       .  S
C160        N442   1.442       .  S
O161        H197   0.990       .  S
O162        C164   1.310       .  A
O163        C164   1.283       .  A
C164        C202   1.575       .  S
O165       Zr166   2.439       .  S
O165        H194   0.990       .  S
Zr166       O169   2.435       .  S
Zr166       O170   2.438       .  S
Zr166       O171   2.385       .  S
O167        C172   1.284       .  A
O168        H185   0.990       .  S
O168        H200   0.990       .  S
O169        H186   0.990       .  S
O170        H190   0.990       .  S
O170        H199   0.988       .  S
O171        C172   1.268       .  A
C172        C500   1.476       .  S
O173        H192   0.990       .  S
O173        H196   0.990       .  S
O174        H188   0.988       .  S
O174        H195   0.990       .  S
O175        C179   1.287   1_455  A
O176        C179   1.274   1_455  A
O177        H187   0.990       .  S
O178        H191   0.990       .  S
C202        C204   1.546       .  S
C202        C206   1.538       .  S
C202        C205   1.566       .  S
C203        C207   1.555       .  S
C203        C209   1.546       .  S
C203        C208   1.558       .  S
C204        C212   1.382       .  A
C204       C1303   1.401       .  A
C205        C216   1.385       .  A
C205       C1304   1.427       .  A
C206        C220   1.386       .  A
C206       C1305   1.400       .  A
C207        C210   1.387       .  A
C207       C1300   1.400   1_545  A
C208        C214   1.398       .  A
C208       C1301   1.427   1_545  A
C209        C217   1.379       .  A
C209       C1302   1.401   1_545  A
C210       N1307   1.365       .  A
C210        H223   1.068       .  S
N211        C212   1.360       .  A
N211       C1306   1.365       .  A
C212        H213   1.073       .  S
C214       N1311   1.359       .  A
C214        H224   1.079       .  S
N215        C216   1.365       .  A
N215       C1310   1.358       .  A
C216        H222   1.079       .  S
C217       N1314   1.363   1_545  A
C217        H219   1.082       .  S
N218        C220   1.355       .  A
N218       C1313   1.366       .  A
N218        C384   1.446       .  S
C220        H221   1.076       .  S
C225        C227   1.545       .  S
C225        C229   1.541       .  S
C225        C228   1.581       .  S
C225        C480   1.539       .  S
C226        C230   1.559       .  S
C226        C232   1.530       .  S
C226        C231   1.553       .  S
C226        C490   1.533       .  S
C227        C235   1.398       .  A
C227        C230   1.377       .  A
C228        C239   1.410       .  A
C228        C231   1.411       .  A
C229        C243   1.381       .  A
C229        C232   1.383       .  A
C230        C233   1.394       .  A
C231        C237   1.377       .  A
C232        C240   1.383       .  A
C233        N234   1.350       .  A
C233        H246   1.048       .  S
N234        C235   1.345       .  A
N234        N323   1.424       .  S
C235        H236   1.064       .  S
C237        N238   1.347       .  A
C237        H247   1.065       .  S
N238        C239   1.369       .  A
N238        N439   1.426       .  S
C239        H245   1.076       .  S
C240        N241   1.360       .  A
C240        H242   1.082       .  S
N241        C243   1.358       .  A
N241        C473   1.444       .  S
C243        H244   1.082       .  S
Zr248       O249   2.438       .  S
Zr248       O250   2.486       .  S
Zr248       O251   2.518       .  S
Zr248       O254   2.542       .  S
Zr248       O256   2.415       .  S
Zr248       O257   2.409       .  S
Zr248       O259   2.369       .  S
Zr248      O1354   2.433       .  S
O249        H305   0.990       .  S
O249        H313   0.990       .  S
O250        C270   1.293       .  A
O251        C272   1.302       .  A
O252       Zr262   2.383       .  S
O252        C271   1.262       .  A
O253       Zr261   2.417       .  S
O253       C1368   1.282   1_545  A
O254        C271   1.300       .  A
O255       Zr263   2.549       .  S
O255        C270   1.307       .  A
O256       Zr263   2.380       .  S
O256      Zr1357   2.449       .  S
O257       Zr262   2.352       .  S
O257       Zr263   2.350       .  S
O257        H292   0.963       .  S
O258       Zr261   2.435       .  S
O258       Zr278   2.364       .  S
O258      Zr1344   2.432   1_545  S
O258        H295   0.966       .  S
O259       Zr262   2.413       .  S
O259      Zr1374   2.338       .  S
Zr260       O285   2.435       .  S
Zr260       O279   2.459       .  S
Zr260       O287   2.434       .  S
Zr260       O275   2.468       .  S
Zr260       O267   2.440       .  S
Zr260       O268   2.392       .  S
Zr260       O269   2.405       .  S
Zr260      O1362   2.350       .  S
Zr261       O280   2.440       .  S
Zr261       O273   2.434       .  S
Zr261       O274   2.545       .  S
Zr261       O267   2.391       .  S
Zr261       O268   2.356       .  S
Zr261      O1352   2.444   1_545  S
Zr262       O264   2.453       .  S
Zr262       O286   2.448       .  S
Zr262       O288   2.392       .  S
Zr262      O1365   2.328       .  S
Zr262       O266   2.281       .  S
Zr263       O289   2.436       .  S
Zr263       O290   2.437       .  S
Zr263       O265   2.441       .  S
Zr263      O1363   2.462       .  S
Zr263       O266   2.330       .  S
O264        H301   0.989       .  S
O265        H296   0.990       .  S
O265        H310   0.990       .  S
O266      Zr1356   2.342       .  S
O267      Zr1359   2.460   1_545  S
O267        H293   0.966       .  S
O268       Zr278   2.381       .  S
O269       Zr278   2.403       .  S
O269      Zr1358   2.332   1_545  S
O269        H294   0.967       .  S
C270        C315   1.572       .  S
C271        C483   1.497       .  S
C272       O1349   1.281       .  A
O273        H309   0.990       .  S
O274        C276   1.306       .  A
O275        C276   1.290       .  A
C276        C314   1.585       .  S
O277       Zr278   2.436       .  S
O277        H306   0.990       .  S
Zr278       O281   2.438       .  S
Zr278       O282   2.451       .  S
Zr278       O283   2.366       .  S
Zr278      O1355   2.338   1_545  S
O279        C284   1.277       .  A
O280        H297   0.990       .  S
O280        H312   0.990       .  S
O281        H298   0.990       .  S
O282        H302   0.989       .  S
O282        H311   0.988       .  S
O283        C284   1.259       .  A
C284        C493   1.480       .  S
O285        H304   0.990       .  S
O285        H308   0.990       .  S
O286        H300   0.990       .  S
O286        H307   0.990       .  S
O287        C291   1.275       .  A
O288       C1387   1.269       .  A
O289        H299   0.990       .  S
O290       H1399   0.990       .  S
C291       O1384   1.267   1_545  A
C291        C403   1.461       .  S
H303       O1386   0.990   1_545  S
C314        C316   1.542       .  S
C314        C318   1.543       .  S
C314        C317   1.562       .  S
C315        C319   1.557       .  S
C315        C321   1.555       .  S
C315        C320   1.561       .  S
C316        C324   1.374       .  A
C316        C319   1.400       .  A
C317        C328   1.374       .  A
C317        C320   1.422       .  A
C318        C332   1.389       .  A
C318        C321   1.404       .  A
C319        C322   1.393       .  A
C320        C326   1.408       .  A
C321        C329   1.382       .  A
C322        N323   1.367       .  A
C322        H335   1.074       .  S
N323        C324   1.358       .  A
C324        H325   1.070       .  S
C326        N327   1.361       .  A
C326        H336   1.080       .  S
N327        C328   1.369       .  A
N327        N350   1.432       .  S
C328        H334   1.079       .  S
C329        N330   1.367       .  A
C329        H331   1.082       .  S
N330        C332   1.356       .  A
C332        H333   1.077       .  S
C337        C339   1.522       .  S
C337        C341   1.552       .  S
C337        C340   1.598       .  S
C337        C450   1.532       .  S
C338        C342   1.554       .  S
C338        C344   1.538       .  S
C338        C343   1.525       .  S
C338        C460   1.520       .  S
C339        C347   1.386       .  A
C339        C342   1.363       .  A
C340        C351   1.430       .  A
C340        C343   1.400       .  A
C341        C355   1.376       .  A
C341        C344   1.400       .  A
C342        C345   1.394       .  A
C343        C349   1.350       .  A
C344        C352   1.394       .  A
C345        N346   1.357       .  A
C345        H358   1.069       .  S
N346        C347   1.350       .  A
N346        N435   1.418       .  S
C347        H348   1.080       .  S
C349        N350   1.342       .  A
C349        H359   1.079       .  S
N350        C351   1.387       .  A
C351        H357   1.081       .  S
C352        N353   1.357       .  A
C352        H354   1.079       .  S
N353        C355   1.351       .  A
N353        C470   1.441       .  S
C355        H356   1.083       .  S
Zr360       O361   2.437       .  S
Zr360       O362   2.520       .  S
Zr360       O363   2.507       .  S
Zr360       O366   2.577       .  S
Zr360       O368   2.419       .  S
Zr360       O369   2.399       .  S
Zr360       O371   2.331       .  S
Zr360      O1466   2.456       .  S
O361        H417   0.990       .  S
O361        H425   0.990       .  S
O362        C382   1.301       .  A
O363        C384   1.300       .  A
O364       Zr374   2.389       .  S
O364        C383   1.266       .  A
O365       Zr373   2.428       .  S
O365       C1480   1.282   1_545  A
O366        C383   1.307       .  A
O367       Zr375   2.516       .  S
O367        C382   1.300       .  A
O368       Zr375   2.386       .  S
O368      Zr1469   2.444       .  S
O369       Zr374   2.341       .  S
O369       Zr375   2.373       .  S
O369        H404   0.952       .  S
O370       Zr373   2.431       .  S
O370       Zr390   2.371       .  S
O370      Zr1456   2.443   1_545  S
O370        H407   0.965       .  S
O371       Zr374   2.371       .  S
O371      Zr1486   2.346       .  S
Zr372       O397   2.434       .  S
Zr372       O391   2.453       .  S
Zr372       O399   2.444       .  S
Zr372       O387   2.495       .  S
Zr372       O379   2.435       .  S
Zr372       O380   2.377       .  S
Zr372       O381   2.382       .  S
Zr372      O1474   2.356   1_545  S
Zr373       O392   2.443       .  S
Zr373       O385   2.437       .  S
Zr373       O386   2.536       .  S
Zr373       O379   2.389       .  S
Zr373       O380   2.377       .  S
Zr373      O1464   2.429   1_545  S
Zr374       O376   2.442       .  S
Zr374       O398   2.455       .  S
Zr374       O400   2.416       .  S
Zr374      O1477   2.309       .  S
Zr374       O378   2.275       .  S
Zr375       O401   2.437       .  S
Zr375       O402   2.439       .  S
Zr375       O377   2.439       .  S
Zr375      O1475   2.449       .  S
Zr375       O378   2.343       .  S
O376        H413   0.990       .  S
O377        H408   0.991       .  S
O377        H422   0.990       .  S
O378      Zr1468   2.352       .  S
O379      Zr1471   2.456   1_545  S
O379        H405   0.966       .  S
O380       Zr390   2.355       .  S
O381       Zr390   2.386       .  S
O381      Zr1470   2.333   1_545  S
O381        H406   0.962       .  S
C382        C427   1.576       .  S
C383        C453   1.489       .  S
C384       O1461   1.282       .  A
O385        H421   0.990       .  S
O386        C388   1.304       .  A
O387        C388   1.295       .  A
C388        C426   1.585       .  S
O389       Zr390   2.440       .  S
O389        H418   0.990       .  S
Zr390       O393   2.435       .  S
Zr390       O394   2.436       .  S
Zr390       O395   2.380       .  S
Zr390      O1467   2.347   1_545  S
O391        C396   1.288       .  A
O392        H409   0.990       .  S
O392        H424   0.990       .  S
O393        H410   0.990       .  S
O394        H414   0.990       .  S
O394        H423   0.989   1_545  S
O395        C396   1.277       .  A
C396        C463   1.463       .  S
O397        H416   0.990       .  S
O397        H420   0.990       .  S
O398        H412   0.990       .  S
O398        H419   0.989       .  S
O399        C403   1.287       .  A
O400       C1499   1.276       .  A
O401        H411   0.990       .  S
O402       H1511   0.990       .  S
C403       O1496   1.280   1_545  A
H415       O1498   0.990       .  S
C426        C428   1.544       .  S
C426        C430   1.550       .  S
C426        C429   1.564       .  S
C427        C431   1.547       .  S
C427        C433   1.540       .  S
C427        C432   1.555       .  S
C428        C436   1.380       .  A
C428        C431   1.405       .  A
C429        C440   1.385       .  A
C429        C432   1.424       .  A
C430        C444   1.388       .  A
C430        C433   1.405       .  A
C431        C434   1.380       .  A
C432        C438   1.394       .  A
C433        C441   1.374       .  A
C434        N435   1.363       .  A
C434        H447   1.080       .  S
N435        C436   1.361       .  A
C436        H437   1.081       .  S
C438        N439   1.355       .  A
C438        H448   1.078       .  S
N439        C440   1.367       .  A
C440        H446   1.080       .  S
C441        N442   1.362       .  A
C441        H443   1.083       .  S
N442        C444   1.357       .  A
C444        H445   1.074       .  S
C449        C450   1.436       .  A
C449        C454   1.396       .  A
C449        F456   1.358       .  S
C450        C451   1.391       .  A
C451        C452   1.402       .  A
C451        F458   1.355       .  S
C452        C453   1.428       .  A
C452        F457   1.359       .  S
C453        C454   1.388       .  A
C454        F455   1.357       .  S
C459        C460   1.402       .  A
C459        C464   1.386       .  A
C459        F466   1.350       .  S
C460        C461   1.430       .  A
C461        C462   1.386       .  A
C461        F468   1.356       .  S
C462        C463   1.392       .  A
C462        F467   1.358       .  S
C463        C464   1.408       .  A
C464        F465   1.358       .  S
C469        C474   1.403       .  A
C469       C1018   1.406   1_554  A
C469       F1024   1.357   1_554  S
C470       C1017   1.406       .  A
C470       C1019   1.404       .  A
C471        C472   1.402       .  A
C471       C1018   1.405   1_554  A
C471        F478   1.357       .  S
C472        C473   1.409       .  A
C472        F477   1.357       .  S
C473        C474   1.407       .  A
C474        F475   1.357       .  S
F476       C1017   1.357       .  S
C479        C480   1.391       .  A
C479        C484   1.388       .  A
C479        F486   1.349       .  S
C480        C481   1.436       .  A
C481        C482   1.408       .  A
C481        F488   1.355       .  S
C482        C483   1.396       .  A
C482        F487   1.357       .  S
C483        C484   1.422       .  A
C484        F485   1.346       .  S
C489        C490   1.404       .  A
C489        C494   1.396       .  A
C489        F496   1.357       .  S
C490        C491   1.400       .  A
C491        C492   1.393       .  A
C491        F498   1.357       .  S
C492        C493   1.423       .  A
C492        F497   1.355       .  S
C493        C494   1.401       .  A
C494        F495   1.356       .  S
C499        C500   1.408       .  A
C499        C504   1.392       .  A
C499        F506   1.357       .  S
C500        C501   1.405   1_455  A
C501        C502   1.392       .  A
C501        F508   1.355       .  S
C502        C503   1.401       .  A
C502        F507   1.346       .  S
C503        C504   1.417   1_655  A
C504        F505   1.356       .  S
C509        C510   1.386   1_655  A
C509        C514   1.382   1_655  A
C509        F516   1.350       .  S
C510        C511   1.439       .  A
C511        C512   1.408       .  A
C511        F518   1.355       .  S
C512        C513   1.393       .  A
C512        F517   1.357       .  S
C513        C514   1.429       .  A
C514        F515   1.351       .  S
C519        C524   1.397       .  A
C519       C2164   1.404   1_454  A
C519        F526   1.357   1_554  S
C520       C2163   1.409   1_655  A
C520       C1069   1.407   1_565  A
C521        C522   1.400       .  A
C521       C1068   1.411   1_544  A
C521       F1076   1.357   1_554  S
C522        C523   1.405   1_545  A
C522        F527   1.357       .  S
C523       C1620   1.407       .  A
C524       C1619   1.410   1_455  A
C524        F525   1.357       .  S
F528       C1069   1.357       .  S
C529        C530   1.428       .  A
C529        C534   1.387       .  A
C529        F536   1.355       .  S
C530        C531   1.395       .  A
C531        C532   1.410       .  A
C531        F538   1.357       .  S
C532        C533   1.437       .  A
C532        F537   1.354       .  S
C533        C534   1.393       .  A
C534        F535   1.349   1_655  S
C539        C540   1.407       .  A
C539        C544   1.394       .  A
C539        F546   1.356       .  S
C540        C541   1.411       .  A
C541        C542   1.391       .  A
C541        F548   1.354       .  S
C542        C543   1.409       .  A
C542        F547   1.356       .  S
C543        C544   1.401       .  A
C544        F545   1.351   1_655  S
C549        C551   1.545       .  S
C549        C553   1.528       .  S
C549        C552   1.587   1_655  S
C549       C1081   1.533       .  S
C550        C554   1.548       .  S
C550        C556   1.530       .  S
C550        C555   1.542   1_655  S
C550       C1091   1.530       .  S
C551        C559   1.396       .  A
C551       C1650   1.374   1_545  A
C552        C563   1.410       .  A
C552       C1651   1.415   1_545  A
C553        C567   1.376       .  A
C553       C1652   1.379   1_545  A
C554       C1647   1.371       .  A
C554        C557   1.391       .  A
C555       C1648   1.420       .  A
C555        C561   1.364       .  A
C556       C1649   1.375       .  A
C556        C564   1.383       .  A
C557        N558   1.350       .  A
C557        H570   1.059       .  S
N558       C1655   1.349       .  A
N558        N647   1.423       .  S
C559       N1654   1.345   1_545  A
C559        H560   1.060       .  S
C561        N562   1.347       .  A
C561        H571   1.064       .  S
N562       C1659   1.382       .  A
N562        N763   1.432       .  S
C563       N1658   1.368       .  A
C563        H569   1.076       .  S
C564       N1661   1.358       .  A
C564        H566   1.082       .  S
N565       C1660   1.361       .  A
N565        C567   1.356   1_565  A
N565       C1068   1.444       .  S
C567        H568   1.082       .  S
Zr572       O573   2.439       .  S
Zr572       O574   2.505       .  S
Zr572       O575   2.506       .  S
Zr572       O578   2.537       .  S
Zr572       O580   2.421       .  S
Zr572       O581   2.401       .  S
Zr572       O582   2.452       .  S
Zr572       O583   2.385       .  S
O573        H629   0.990       .  S
O573        H637   0.990       .  S
O574        C594   1.297       .  A
O575        C596   1.300       .  A
O576       Zr586   2.360       .  S
O576        C595   1.253       .  A
O577       Zr585   2.408       .  S
O577        C596   1.279       .  A
O578        C595   1.297       .  A
O579       Zr587   2.549       .  S
O579        C594   1.307       .  A
O580       Zr585   2.442       .  S
O580       Zr587   2.378       .  S
O581       Zr586   2.345       .  S
O581       Zr587   2.337       .  S
O581        H616   0.959       .  S
O582       Zr585   2.441       .  S
O582       Zr602   2.365       .  S
O582        H619   0.963       .  S
O583       Zr586   2.397       .  S
O583       Zr602   2.353       .  S
Zr584       O609   2.435       .  S
Zr584       O603   2.441       .  S
Zr584       O611   2.426       .  S
Zr584       O599   2.448       .  S
Zr584       O591   2.427       .  S
Zr584       O592   2.393       .  S
Zr584       O593   2.382       .  S
Zr584       O590   2.341       .  S
Zr585       O604   2.443       .  S
Zr585       O597   2.436       .  S
Zr585       O598   2.555       .  S
Zr585       O591   2.387       .  S
Zr585       O592   2.361       .  S
Zr586       O588   2.456       .  S
Zr586       O610   2.447       .  S
Zr586       O612   2.358       .  S
Zr586       O593   2.305       .  S
Zr586       O590   2.282       .  S
Zr587       O613   2.436       .  S
Zr587       O614   2.438       .  S
Zr587       O589   2.440       .  S
Zr587       O591   2.455       .  S
Zr587       O590   2.343       .  S
O588        H625   0.990       .  S
O589        H620   0.990       .  S
O589        H634   0.990       .  S
O591        H617   0.967       .  S
O592       Zr602   2.390       .  S
O593       Zr602   2.384       .  S
O593        H618   0.961       .  S
C594        C639   1.581       .  S
C595       C1078   1.489       .  S
C596        N878   1.439       .  S
O597        H633   0.990       .  S
O598        C600   1.308       .  A
O599        C600   1.285       .  A
C600        C638   1.579       .  S
O601       Zr602   2.438       .  S
O601        H630   0.990       .  S
Zr602       O605   2.435       .  S
Zr602       O606   2.442       .  S
Zr602       O607   2.384       .  S
O603        C608   1.278       .  A
O604        H621   0.990       .  S
O604        H636   0.991       .  S
O605        H622   0.990       .  S
O606        H626   0.990       .  S
O606        H635   0.987       .  S
O607        C608   1.267       .  A
C608       C1088   1.476       .  S
O609        H628   0.990       .  S
O609        H632   0.990       .  S
O610        H624   0.990       .  S
O610        H631   0.990       .  S
O611        C615   1.281       .  A
O612        C615   1.272       .  A
O613        H623   0.990       .  S
O614        H627   0.990       .  S
C615        C727   1.431   1_655  S
C638        C640   1.547       .  S
C638        C642   1.544       .  S
C638        C641   1.566       .  S
C639        C643   1.554       .  S
C639        C645   1.552       .  S
C639        C644   1.559       .  S
C640        C648   1.377       .  A
C640       C1739   1.402       .  A
C641        C652   1.389       .  A
C641       C1740   1.427       .  A
C642        C656   1.390       .  A
C642       C1741   1.400       .  A
C643       C1736   1.401   1_545  A
C643        C646   1.387       .  A
C644       C1737   1.426   1_545  A
C644        C650   1.400       .  A
C645       C1738   1.404   1_545  A
C645        C653   1.382       .  A
C646       N1743   1.365   1_545  A
C646        H659   1.072       .  S
N647       C1742   1.363       .  A
N647        C648   1.360       .  A
C648        H649   1.070       .  S
C650       N1747   1.360       .  A
C650        H660   1.080       .  S
N651       C1746   1.360       .  A
N651        C652   1.364       .  A
N651        N674   1.430       .  S
C652        H658   1.079       .  S
C653       N1750   1.366   1_545  A
C653        H655   1.082       .  S
N654       C1749   1.362       .  A
N654        C656   1.358       .  A
N654        C820   1.445       .  S
C656        H657   1.075       .  S
C661        C663   1.542   1_655  S
C661        C665   1.521       .  S
C661        C664   1.596       .  S
C661       C1058   1.533   1_655  S
C662        C666   1.546   1_655  S
C662        C668   1.538       .  S
C662        C667   1.551       .  S
C662       C1051   1.530       .  S
C663        C671   1.395       .  A
C663       C1762   1.376   1_545  A
C664        C675   1.413       .  A
C664       C1763   1.416   1_545  A
C665        C679   1.375       .  A
C665       C1764   1.375   1_545  A
C666       C1759   1.376       .  A
C666        C669   1.391       .  A
C667       C1760   1.415       .  A
C667        C673   1.381       .  A
C668       C1761   1.377       .  A
C668        C676   1.387       .  A
C669        N670   1.346       .  A
C669        H682   1.057       .  S
N670       C1767   1.347       .  A
N670        N759   1.425       .  S
C671       N1766   1.342   1_545  A
C671        H672   1.061       .  S
C673        N674   1.354       .  A
C673        H683   1.068       .  S
N674       C1771   1.369       .  A
C675       N1770   1.372       .  A
C675        H681   1.077       .  S
C676       N1773   1.362       .  A
C676        H678   1.082       .  S
N677       C1772   1.360       .  A
N677        C679   1.353   1_565  A
N677       C1071   1.439       .  S
C679        H680   1.083       .  S
Zr684       O685   2.439       .  S
Zr684       O686   2.495       .  S
Zr684       O687   2.501       .  S
Zr684       O690   2.560       .  S
Zr684       O692   2.427       .  S
Zr684       O693   2.393       .  S
Zr684       O694   2.451       .  S
Zr684       O695   2.375       .  S
O685        H741   0.990       .  S
O685        H749   0.990       .  S
O686        C706   1.296       .  A
O687        C708   1.298       .  A
O688       Zr698   2.340       .  S
O688        C707   1.249       .  A
O689       Zr697   2.438       .  S
O689        C708   1.286       .  A
O690        C707   1.302       .  A
O691       Zr699   2.541       .  S
O691        C706   1.306       .  A
O692       Zr697   2.443       .  S
O692       Zr699   2.378       .  S
O693       Zr698   2.344       .  S
O693       Zr699   2.341       .  S
O693        H728   0.954       .  S
O694       Zr697   2.441       .  S
O694       Zr714   2.362       .  S
O694        H731   0.964       .  S
O695       Zr698   2.401       .  S
O695       Zr714   2.360       .  S
Zr696       O721   2.432       .  S
Zr696       O715   2.433       .  S
Zr696       O723   2.440       .  S
Zr696       O711   2.436       .  S
Zr696       O702   2.419       .  S
Zr696       O703   2.436       .  S
Zr696       O704   2.403       .  S
Zr696       O705   2.378       .  S
Zr697       O716   2.444       .  S
Zr697       O709   2.434       .  S
Zr697       O710   2.577       .  S
Zr697       O703   2.388       .  S
Zr697       O704   2.358       .  S
Zr698       O700   2.458       .  S
Zr698       O722   2.446       .  S
Zr698       O724   2.342       .  S
Zr698       O702   2.374       .  S
Zr698       O705   2.302       .  S
Zr699       O725   2.436       .  S
Zr699       O726   2.439       .  S
Zr699       O701   2.438       .  S
Zr699       O702   2.427       .  S
Zr699       O703   2.457       .  S
O700        H737   0.990       .  S
O701        H732   0.989       .  S
O701        H746   0.990       .  S
O703        H729   0.965       .  S
O704       Zr714   2.388       .  S
O705       Zr714   2.388       .  S
O705        H730   0.961       .  S
C706        C751   1.572       .  S
C707       C1061   1.496       .  S
C708        N990   1.446       .  S
O709        H745   0.990       .  S
O710        C712   1.314       .  A
O711        C712   1.282       .  A
C712        C750   1.583       .  S
O713       Zr714   2.436       .  S
O713        H742   0.990       .  S
Zr714       O717   2.434       .  S
Zr714       O718   2.441       .  S
Zr714       O719   2.383       .  S
O715        C720   1.278       .  A
O716        H733   0.990       .  S
O716        H748   0.990       .  S
O717        H734   0.990       .  S
O718        H738   0.989       .  S
O718        H747   0.987       .  S
O719        C720   1.266       .  A
C720       C1048   1.474       .  S
O721        H740   0.990       .  S
O721        H744   0.990       .  S
O722        H736   0.990       .  S
O722        H743   0.990       .  S
O723        C727   1.284       .  A
O724        C727   1.269       .  A
O725        H735   0.990       .  S
O726        H739   0.990       .  S
C750        C752   1.546       .  S
C750        C754   1.538       .  S
C750        C753   1.570       .  S
C751        C755   1.553       .  S
C751        C757   1.550       .  S
C751        C756   1.560       .  S
C752        C760   1.377       .  A
C752       C1851   1.401       .  A
C753        C764   1.387       .  A
C753       C1852   1.429       .  A
C754        C768   1.387       .  A
C754       C1853   1.401       .  A
C755       C1848   1.399   1_545  A
C755        C758   1.388       .  A
C756       C1849   1.428   1_545  A
C756        C762   1.400       .  A
C757       C1850   1.400   1_545  A
C757        C765   1.381       .  A
C758       N1855   1.365   1_545  A
C758        H771   1.069       .  S
N759       C1854   1.365       .  A
N759        C760   1.360       .  A
C760        H761   1.069       .  S
C762       N1859   1.360       .  A
C762        H772   1.080       .  S
N763       C1858   1.355       .  A
N763        C764   1.368       .  A
C764        H770   1.079       .  S
C765       N1862   1.365   1_545  A
C765        H767   1.083       .  S
N766       C1861   1.368       .  A
N766        C768   1.354       .  A
N766        C932   1.448       .  S
C768        H769   1.075       .  S
C773        C775   1.549       .  S
C773        C777   1.547       .  S
C773        C776   1.580       .  S
C773       C1028   1.539       .  S
C774        C778   1.556       .  S
C774        C780   1.526       .  S
C774        C779   1.555       .  S
C774       C1038   1.531       .  S
C775        C783   1.399       .  A
C775        C778   1.377       .  A
C776        C787   1.410       .  A
C776        C779   1.409       .  A
C777        C791   1.384       .  A
C777        C780   1.383       .  A
C778        C781   1.392       .  A
C779        C785   1.379       .  A
C780        C788   1.381       .  A
C781        N782   1.348       .  A
C781        H794   1.049       .  S
N782        C783   1.346       .  A
N782        N871   1.424       .  S
C783        H784   1.062       .  S
C785        N786   1.347       .  A
C785        H795   1.064       .  S
N786        C787   1.369       .  A
N786        N987   1.427       .  S
C787        H793   1.077       .  S
C788        N789   1.358       .  A
C788        H790   1.081       .  S
N789        C791   1.362       .  A
N789       C1021   1.448       .  S
C791        H792   1.082       .  S
Zr796       O797   2.440       .  S
Zr796       O798   2.483       .  S
Zr796       O799   2.502       .  S
Zr796       O802   2.535       .  S
Zr796       O804   2.418       .  S
Zr796       O805   2.409       .  S
Zr796      O1902   2.436       .  S
Zr796       O807   2.371       .  S
O797        H853   0.990       .  S
O797        H861   0.990       .  S
O798        C818   1.293       .  A
O799        C820   1.298       .  A
O800       Zr810   2.375       .  S
O800        C819   1.261       .  A
O801       Zr809   2.423       .  S
O801       C1916   1.282   1_545  A
O802        C819   1.298       .  A
O803       Zr811   2.548       .  S
O803        C818   1.307       .  A
O804      Zr1905   2.445       .  S
O804       Zr811   2.371       .  S
O805       Zr810   2.360       .  S
O805       Zr811   2.349       .  S
O805        H840   0.957       .  S
O806      Zr1892   2.429   1_545  S
O806       Zr809   2.436       .  S
O806       Zr826   2.371       .  S
O806        H843   0.965       .  S
O807       Zr810   2.411       .  S
O807      Zr1922   2.340       .  S
Zr808       O833   2.436       .  S
Zr808       O827   2.447       .  S
Zr808       O835   2.444       .  S
Zr808       O823   2.465       .  S
Zr808       O815   2.440       .  S
Zr808       O816   2.399       .  S
Zr808       O817   2.405       .  S
Zr808      O1910   2.346   1_545  S
Zr809       O828   2.443       .  S
Zr809       O821   2.434       .  S
Zr809       O822   2.549       .  S
Zr809      O1900   2.445   1_545  S
Zr809       O815   2.395       .  S
Zr809       O816   2.359       .  S
Zr810       O812   2.454       .  S
Zr810       O834   2.446       .  S
Zr810       O836   2.399       .  S
Zr810      O1913   2.337       .  S
Zr810       O814   2.276       .  S
Zr811       O837   2.437       .  S
Zr811       O838   2.440       .  S
Zr811       O813   2.441       .  S
Zr811      O1911   2.461       .  S
Zr811       O814   2.333       .  S
O812        H849   0.988       .  S
O813        H844   0.990       .  S
O813        H858   0.990       .  S
O814      Zr1904   2.341       .  S
O815      Zr1907   2.462   1_545  S
O815        H841   0.966       .  S
O816       Zr826   2.383       .  S
O817      Zr1906   2.329   1_545  S
O817       Zr826   2.403       .  S
O817        H842   0.971       .  S
C818        C863   1.572       .  S
C819       C1031   1.494       .  S
C820       O1897   1.283       .  A
O821        H857   0.990       .  S
O822        C824   1.307       .  A
O823        C824   1.289       .  A
C824        C862   1.585       .  S
O825       Zr826   2.437       .  S
O825        H854   0.991       .  S
Zr826       O829   2.440       .  S
Zr826       O830   2.456       .  S
Zr826       O831   2.367       .  S
Zr826      O1903   2.328   1_545  S
O827        C832   1.274       .  A
O828        H845   0.990       .  S
O828        H860   0.990       .  S
O829        H846   0.990       .  S
O830        H850   0.989       .  S
O830        H859   0.988       .  S
O831        C832   1.260       .  A
C832       C1041   1.476       .  S
O833        H852   0.990       .  S
O833        H856   0.990       .  S
O834        H848   0.991       .  S
O834        H855   0.988       .  S
O835        C839   1.277       .  A
O836       C1935   1.270       .  A
O837        H847   0.990       .  S
O838       H1947   0.990       .  S
C839       O1932   1.269   1_545  A
C839        C951   1.468       .  S
H851       O1934   0.990   1_545  S
C862        C864   1.541       .  S
C862        C866   1.538       .  S
C862        C865   1.562       .  S
C863        C867   1.554       .  S
C863        C869   1.550       .  S
C863        C868   1.554       .  S
C864        C872   1.370       .  A
C864        C867   1.400       .  A
C865        C876   1.377       .  A
C865        C868   1.422       .  A
C866        C880   1.384       .  A
C866        C869   1.406       .  A
C867        C870   1.393       .  A
C868        C874   1.399       .  A
C869        C877   1.376       .  A
C870        N871   1.365       .  A
C870        H883   1.075       .  S
N871        C872   1.357       .  A
C872        H873   1.066       .  S
C874        N875   1.356       .  A
C874        H884   1.078       .  S
N875        C876   1.368       .  A
N875        N898   1.427       .  S
C876        H882   1.080       .  S
C877        N878   1.365       .  A
C877        H879   1.082       .  S
N878        C880   1.353       .  A
C880        H881   1.076       .  S
C885        C887   1.531       .  S
C885        C889   1.550       .  S
C885        C888   1.593       .  S
C885        C998   1.534       .  S
C886        C890   1.551       .  S
C886        C892   1.540       .  S
C886        C891   1.526       .  S
C886       C1008   1.519       .  S
C887        C895   1.388       .  A
C887        C890   1.365       .  A
C888        C899   1.422       .  A
C888        C891   1.402       .  A
C889        C903   1.381       .  A
C889        C892   1.396       .  A
C890        C893   1.398       .  A
C891        C897   1.355       .  A
C892        C900   1.389       .  A
C893        N894   1.359       .  A
C893        H906   1.069       .  S
N894        C895   1.351       .  A
N894        N983   1.423       .  S
C895        H896   1.076       .  S
C897        N898   1.342       .  A
C897        H907   1.081       .  S
N898        C899   1.382       .  A
C899        H905   1.080       .  S
C900        N901   1.357       .  A
C900        H902   1.080       .  S
N901        C903   1.354       .  A
N901       C1018   1.441       .  S
C903        H904   1.082       .  S
Zr908       O909   2.435       .  S
Zr908       O910   2.487       .  S
Zr908       O911   2.510       .  S
Zr908       O914   2.510       .  S
Zr908       O916   2.397       .  S
Zr908       O917   2.418       .  S
Zr908      O2014   2.426       .  S
Zr908       O919   2.346       .  S
O909        H965   0.990       .  S
O909        H973   0.990       .  S
O910        C930   1.295       .  A
O911        C932   1.302       .  A
O912       Zr922   2.346       .  S
O912        C931   1.249       .  A
O913       Zr921   2.419       .  S
O913       C2028   1.280   1_545  A
O914        C931   1.290       .  A
O915       Zr923   2.531       .  S
O915        C930   1.304       .  A
O916      Zr2017   2.451       .  S
O916       Zr923   2.396       .  S
O917       Zr922   2.325       .  S
O917       Zr923   2.391       .  S
O917        H952   0.962       .  S
O918      Zr2004   2.440   1_545  S
O918       Zr921   2.432       .  S
O918       Zr938   2.365       .  S
O918        H955   0.964       .  S
O919       Zr922   2.366       .  S
O919      Zr2034   2.372       .  S
Zr920       O945   2.434       .  S
Zr920       O939   2.466       .  S
Zr920       O947   2.451       .  S
Zr920       O935   2.488       .  S
Zr920       O927   2.438       .  S
Zr920       O928   2.378       .  S
Zr920       O929   2.378       .  S
Zr920      O2022   2.358   1_545  S
Zr921       O940   2.444       .  S
Zr921       O933   2.437       .  S
Zr921       O934   2.523       .  S
Zr921      O2012   2.431   1_545  S
Zr921       O927   2.389       .  S
Zr921       O928   2.383       .  S
Zr922       O924   2.435       .  S
Zr922       O946   2.442       .  S
Zr922       O948   2.397       .  S
Zr922      O2025   2.315       .  S
Zr922       O926   2.245       .  S
Zr923       O949   2.438       .  S
Zr923       O950   2.440       .  S
Zr923       O925   2.440       .  S
Zr923      O2023   2.463       .  S
Zr923       O926   2.356       .  S
O924        H961   0.990       .  S
O925        H956   0.990       .  S
O925        H970   0.990       .  S
O926      Zr2016   2.361       .  S
O927      Zr2019   2.459   1_545  S
O927        H953   0.966       .  S
O928       Zr938   2.364       .  S
O929      Zr2018   2.338   1_545  S
O929       Zr938   2.388       .  S
O929        H954   0.959       .  S
C930        C975   1.567       .  S
C931       C1001   1.491       .  S
C932       O2009   1.280       .  A
O933        H969   0.990       .  S
O934        C936   1.301       .  A
O935        C936   1.294       .  A
C936        C974   1.577       .  S
O937       Zr938   2.439       .  S
O937        H966   0.991   1_545  S
Zr938       O941   2.437       .  S
Zr938       O942   2.437       .  S
Zr938       O943   2.364       .  S
Zr938      O2015   2.336   1_545  S
O939        C944   1.291       .  A
O940        H957   0.991       .  S
O940        H972   0.990       .  S
O941        H958   0.990       .  S
O942        H962   0.990       .  S
O942        H971   0.989   1_545  S
O943        C944   1.272       .  A
C944       C1011   1.468       .  S
O945        H964   0.990       .  S
O945        H968   0.990       .  S
O946        H960   0.990       .  S
O946        H967   0.989       .  S
O947        C951   1.288       .  A
O948       C2047   1.278       .  A
O949        H959   0.991       .  S
O950       H2059   0.990       .  S
C951       O2044   1.281   1_545  A
H963       O2046   0.990       .  S
C974        C976   1.545       .  S
C974        C978   1.555       .  S
C974        C977   1.565       .  S
C975        C979   1.555       .  S
C975        C981   1.537       .  S
C975        C980   1.551       .  S
C976        C984   1.384       .  A
C976        C979   1.404       .  A
C977        C988   1.387       .  A
C977        C980   1.422       .  A
C978        C992   1.392       .  A
C978        C981   1.400       .  A
C979        C982   1.386       .  A
C980        C986   1.394       .  A
C981        C989   1.376       .  A
C982        N983   1.366       .  A
C982        H995   1.080       .  S
N983        C984   1.362       .  A
C984        H985   1.081       .  S
C986        N987   1.355       .  A
C986        H996   1.079       .  S
N987        C988   1.367       .  A
C988        H994   1.079       .  S
C989        N990   1.360       .  A
C989        H991   1.083       .  S
N990        C992   1.360       .  A
C992        H993   1.073       .  S
C997        C998   1.434       .  A
C997       C1002   1.397       .  A
C997       F1004   1.358       .  S
C998        C999   1.395       .  A
C999       C1000   1.402       .  A
C999       F1006   1.354       .  S
C1000      C1001   1.426       .  A
C1000      F1005   1.358       .  S
C1001      C1002   1.392       .  A
C1002      F1003   1.358       .  S
C1007      C1008   1.405       .  A
C1007      C1012   1.385       .  A
C1007      F1014   1.351       .  S
C1008      C1009   1.431       .  A
C1009      C1010   1.385       .  A
C1009      F1016   1.354       .  S
C1010      C1011   1.392       .  A
C1010      F1015   1.357       .  S
C1011      C1012   1.410       .  A
C1012      F1013   1.358       .  S
C1017      C1022   1.405       .  A
C1019      C1020   1.399       .  A
C1019      F1026   1.357       .  S
C1020      C1021   1.409       .  A
C1020      F1025   1.357       .  S
C1021      C1022   1.412       .  A
C1022      F1023   1.357       .  S
C1027      C1028   1.395       .  A
C1027      C1032   1.387       .  A
C1027      F1034   1.348       .  S
C1028      C1029   1.435       .  A
C1029      C1030   1.407       .  A
C1029      F1036   1.354       .  S
C1030      C1031   1.395       .  A
C1030      F1035   1.357       .  S
C1031      C1032   1.421       .  A
C1032      F1033   1.348       .  S
C1037      C1038   1.403       .  A
C1037      C1042   1.394       .  A
C1037      F1044   1.356       .  S
C1038      C1039   1.401       .  A
C1039      C1040   1.391       .  A
C1039      F1046   1.357       .  S
C1040      C1041   1.421       .  A
C1040      F1045   1.352       .  S
C1041      C1042   1.400       .  A
C1042      F1043   1.356       .  S
C1047      C1048   1.409       .  A
C1047      C1052   1.393       .  A
C1047      F1054   1.358       .  S
C1048      C1049   1.406       .  A
C1049      C1050   1.395   1_455  A
C1049      F1056   1.356   1_455  S
C1050      C1051   1.401       .  A
C1050      F1055   1.351       .  S
C1051      C1052   1.415   1_655  A
C1052      F1053   1.357       .  S
C1057      C1058   1.383   1_655  A
C1057      C1062   1.386   1_655  A
C1057      F1064   1.351       .  S
C1058      C1059   1.438       .  A
C1059      C1060   1.406       .  A
C1059      F1066   1.356       .  S
C1060      C1061   1.393       .  A
C1060      F1065   1.357       .  S
C1061      C1062   1.432       .  A
C1062      F1063   1.353       .  S
C1067      C1616   1.408   1_455  A
C1067      C1072   1.401       .  A
C1067      F1074   1.357       .  S
C1068      C1615   1.406   1_556  A
C1069      C1070   1.398       .  A
C1070      C1071   1.405   1_545  A
C1070      F1075   1.357       .  S
C1071      C2168   1.405   1_655  A
C1072      C2167   1.410   1_455  A
C1072      F1073   1.357       .  S
C1077      C1078   1.426       .  A
C1077      C1082   1.382       .  A
C1077      F1084   1.353       .  S
C1078      C1079   1.394       .  A
C1079      C1080   1.406       .  A
C1079      F1086   1.358       .  S
C1080      C1081   1.437       .  A
C1080      F1085   1.355       .  S
C1081      C1082   1.388       .  A
C1082      F1083   1.348   1_655  S
C1087      C1088   1.406       .  A
C1087      C1092   1.395       .  A
C1087      F1094   1.356       .  S
C1088      C1089   1.411       .  A
C1089      C1090   1.391       .  A
C1089      F1096   1.356       .  S
C1090      C1091   1.413       .  A
C1090      F1095   1.357       .  S
C1091      C1092   1.402       .  A
C1092      F1093   1.351   1_655  S
C1097      C1099   1.547       .  S
C1097      C1101   1.527       .  S
C1097      C1100   1.600   1_655  S
C1097      C1629   1.534       .  S
C1098      C1102   1.553       .  S
C1098      C1104   1.534       .  S
C1098      C1103   1.540   1_655  S
C1098      C1639   1.531       .  S
C1099      C1107   1.398       .  A
C1100      C1111   1.417       .  A
C1101      C1115   1.379       .  A
C1102      C1105   1.397       .  A
C1103      C1109   1.372       .  A
C1104      C1112   1.382       .  A
C1105      N1106   1.352   1_565  A
C1105      H1118   1.059       .  S
N1106      N1195   1.426       .  S
C1107      H1108   1.059       .  S
C1109      N1110   1.349   1_565  A
C1109      H1119   1.065       .  S
N1110      N1311   1.428       .  S
C1111      H1117   1.078       .  S
C1112      H1114   1.082       .  S
N1113      C1115   1.356       .  A
N1113      C1616   1.448       .  S
C1115      H1116   1.082       .  S
Zr1120     O1121   2.438       .  S
Zr1120     O1122   2.507       .  S
Zr1120     O1123   2.499       .  S
Zr1120     O1126   2.549       .  S
Zr1120     O1128   2.420       .  S
Zr1120     O1129   2.395       .  S
Zr1120     O1130   2.453       .  S
Zr1120     O1131   2.382       .  S
O1121      H1177   0.990       .  S
O1121      H1185   0.990       .  S
O1122      C1142   1.299       .  A
O1123      C1144   1.299       .  A
O1124     Zr1134   2.354       .  S
O1124      C1143   1.249       .  A
O1125     Zr1133   2.404       .  S
O1125      C1144   1.280       .  A
O1126      C1143   1.298       .  A
O1127     Zr1135   2.538       .  S
O1127      C1142   1.305       .  A
O1128     Zr1133   2.431       .  S
O1128     Zr1135   2.377       .  S
O1129     Zr1134   2.348       .  S
O1129     Zr1135   2.342       .  S
O1129      H1164   0.961       .  S
O1130     Zr1133   2.441       .  S
O1130     Zr1150   2.362       .  S
O1130      H1167   0.964       .  S
O1131     Zr1134   2.398       .  S
O1131     Zr1150   2.358       .  S
Zr1132     O1157   2.423       .  S
Zr1132     O1151   2.422       .  S
Zr1132     O1159   2.451       .  S
Zr1132     O1147   2.448       .  S
Zr1132     O1138   2.420       .  S
Zr1132     O1139   2.424       .  S
Zr1132     O1140   2.392       .  S
Zr1132     O1141   2.376       .  S
Zr1133     O1152   2.441       .  S
Zr1133     O1145   2.438       .  S
Zr1133     O1146   2.541       .  S
Zr1133     O1139   2.380       .  S
Zr1133     O1140   2.359       .  S
Zr1134     O1136   2.461       .  S
Zr1134     O1158   2.443       .  S
Zr1134     O1160   2.355       .  S
Zr1134     O1138   2.378       .  S
Zr1134     O1141   2.306       .  S
Zr1135     O1161   2.437       .  S
Zr1135     O1162   2.438       .  S
Zr1135     O1137   2.438       .  S
Zr1135     O1138   2.432       .  S
Zr1135     O1139   2.451       .  S
O1136      H1173   0.990       .  S
O1137      H1168   0.990       .  S
O1137      H1182   0.990       .  S
O1139      H1165   0.968       .  S
O1140     Zr1150   2.387       .  S
O1141     Zr1150   2.385       .  S
O1141      H1166   0.960       .  S
C1142      C1187   1.577       .  S
C1143      C1626   1.495       .  S
C1144      N1426   1.435       .  S
O1145      H1181   0.990       .  S
O1146      C1148   1.305       .  A
O1147      C1148   1.287       .  A
C1148      C1186   1.570       .  S
O1149     Zr1150   2.437       .  S
O1149      H1178   0.990       .  S
Zr1150     O1153   2.434       .  S
Zr1150     O1154   2.440       .  S
Zr1150     O1155   2.379       .  S
O1151      C1156   1.278       .  A
O1152      H1169   0.990       .  S
O1152      H1184   0.990       .  S
O1153      H1170   0.990       .  S
O1154      H1174   0.990       .  S
O1154      H1183   0.987       .  S
O1155      C1156   1.266       .  A
C1156      C1636   1.469       .  S
O1157      H1176   0.990       .  S
O1157      H1180   0.990       .  S
O1158      H1172   0.990       .  S
O1158      H1179   0.990       .  S
O1159      C1163   1.287       .  A
O1160      C1163   1.272       .  A
O1161      H1171   0.990       .  S
O1162      H1175   0.990       .  S
C1163      C1275   1.442       .  S
C1186      C1188   1.544       .  S
C1186      C1190   1.542       .  S
C1186      C1189   1.559       .  S
C1187      C1191   1.549       .  S
C1187      C1193   1.552       .  S
C1187      C1192   1.561       .  S
C1188      C1196   1.379       .  A
C1189      C1200   1.383       .  A
C1190      C1204   1.389       .  A
C1191      C1194   1.388       .  A
C1192      C1198   1.401       .  A
C1193      C1201   1.382       .  A
C1194      H1207   1.069       .  S
N1195      C1196   1.357   1_545  A
C1196      H1197   1.068       .  S
C1198      H1208   1.080       .  S
N1199      C1200   1.362   1_545  A
N1199      N1222   1.430       .  S
C1200      H1206   1.078       .  S
C1201      H1203   1.082       .  S
N1202      C1204   1.358       .  A
N1202      C1368   1.446       .  S
C1204      H1205   1.076       .  S
C1209      C1211   1.548   1_655  S
C1209      C1213   1.527       .  S
C1209      C1212   1.589       .  S
C1209      C1606   1.533       .  S
C1210      C1214   1.550   1_655  S
C1210      C1216   1.536       .  S
C1210      C1215   1.546       .  S
C1210      C1599   1.529       .  S
C1211      C1219   1.397       .  A
C1212      C1223   1.411       .  A
C1213      C1227   1.376       .  A
C1214      C1217   1.399       .  A
C1215      C1221   1.374       .  A
C1216      C1224   1.384       .  A
C1217      N1218   1.350   1_565  A
C1217      H1230   1.063       .  S
N1218      N1307   1.425       .  S
C1219      H1220   1.059       .  S
C1221      N1222   1.353   1_565  A
C1221      H1231   1.068       .  S
C1223      H1229   1.077       .  S
C1224      H1226   1.082       .  S
N1225      C1227   1.357       .  A
N1225      C1619   1.444       .  S
C1227      H1228   1.082       .  S
Zr1232     O1233   2.440       .  S
Zr1232     O1234   2.488       .  S
Zr1232     O1235   2.502       .  S
Zr1232     O1238   2.550       .  S
Zr1232     O1240   2.423       .  S
Zr1232     O1241   2.402       .  S
Zr1232     O1242   2.446       .  S
Zr1232     O1243   2.373       .  S
O1233      H1289   0.990       .  S
O1233      H1297   0.990       .  S
O1234      C1254   1.295       .  A
O1235      C1256   1.298       .  A
O1236     Zr1246   2.358       .  S
O1236      C1255   1.251       .  A
O1237     Zr1245   2.422       .  S
O1237      C1256   1.282       .  A
O1238      C1255   1.298       .  A
O1239     Zr1247   2.549       .  S
O1239      C1254   1.308       .  A
O1240     Zr1245   2.440       .  S
O1240     Zr1247   2.376       .  S
O1241     Zr1246   2.346       .  S
O1241     Zr1247   2.338       .  S
O1241      H1276   0.966       .  S
O1242     Zr1245   2.442       .  S
O1242     Zr1262   2.363       .  S
O1242      H1279   0.964       .  S
O1243     Zr1246   2.405       .  S
O1243     Zr1262   2.352       .  S
Zr1244     O1269   2.432       .  S
Zr1244     O1263   2.445       .  S
Zr1244     O1271   2.435       .  S
Zr1244     O1259   2.435       .  S
Zr1244     O1251   2.428       .  S
Zr1244     O1252   2.392       .  S
Zr1244     O1253   2.372       .  S
Zr1244     O1250   2.331       .  S
Zr1245     O1264   2.439       .  S
Zr1245     O1257   2.436       .  S
Zr1245     O1258   2.564       .  S
Zr1245     O1251   2.387       .  S
Zr1245     O1252   2.359       .  S
Zr1246     O1248   2.460       .  S
Zr1246     O1270   2.452       .  S
Zr1246     O1272   2.368       .  S
Zr1246     O1253   2.303       .  S
Zr1246     O1250   2.275       .  S
Zr1247     O1273   2.437       .  S
Zr1247     O1274   2.438       .  S
Zr1247     O1249   2.440       .  S
Zr1247     O1251   2.452       .  S
Zr1247     O1250   2.339       .  S
O1248      H1285   0.990       .  S
O1249      H1280   0.990       .  S
O1249      H1294   0.990       .  S
O1251      H1277   0.965       .  S
O1252     Zr1262   2.384       .  S
O1253     Zr1262   2.394       .  S
O1253      H1278   0.959       .  S
C1254      C1299   1.572       .  S
C1255      C1609   1.495       .  S
C1256      N1538   1.444       .  S
O1257      H1293   0.990       .  S
O1258      C1260   1.311       .  A
O1259      C1260   1.282       .  A
C1260      C1298   1.577       .  S
O1261     Zr1262   2.437       .  S
O1261      H1290   0.990       .  S
Zr1262     O1265   2.434       .  S
Zr1262     O1266   2.443       .  S
Zr1262     O1267   2.374       .  S
O1263      C1268   1.282       .  A
O1264      H1281   0.990       .  S
O1264      H1296   0.991       .  S
O1265      H1282   0.990       .  S
O1266      H1286   0.989       .  S
O1266      H1295   0.987       .  S
O1267      C1268   1.265       .  A
C1268      C1596   1.473       .  S
O1269      H1288   0.990       .  S
O1269      H1292   0.990       .  S
O1270      H1284   0.988       .  S
O1270      H1291   0.990       .  S
O1271      C1275   1.282   1_455  A
O1272      C1275   1.273   1_455  A
O1273      H1283   0.990       .  S
O1274      H1287   0.990       .  S
C1298      C1300   1.545       .  S
C1298      C1302   1.537       .  S
C1298      C1301   1.565       .  S
C1299      C1303   1.556       .  S
C1299      C1305   1.550       .  S
C1299      C1304   1.557       .  S
C1300      C1308   1.380       .  A
C1301      C1312   1.384       .  A
C1302      C1316   1.383       .  A
C1303      C1306   1.388       .  A
C1304      C1310   1.402       .  A
C1305      C1313   1.382       .  A
C1306      H1319   1.070       .  S
N1307      C1308   1.358   1_545  A
C1308      H1309   1.068       .  S
C1310      H1320   1.080       .  S
N1311      C1312   1.365   1_545  A
C1312      H1318   1.079       .  S
C1313      H1315   1.083       .  S
N1314      C1316   1.354       .  A
N1314      C1480   1.440       .  S
C1316      H1317   1.075       .  S
C1321      C1323   1.551       .  S
C1321      C1325   1.549       .  S
C1321      C1324   1.581       .  S
C1321      C1576   1.539       .  S
C1322      C1326   1.556       .  S
C1322      C1328   1.530       .  S
C1322      C1327   1.551       .  S
C1322      C1586   1.530       .  S
C1323      C1331   1.401       .  A
C1323      C1326   1.376       .  A
C1324      C1335   1.411       .  A
C1324      C1327   1.409       .  A
C1325      C1339   1.386       .  A
C1325      C1328   1.384       .  A
C1326      C1329   1.393       .  A
C1327      C1333   1.376       .  A
C1328      C1336   1.384       .  A
C1329      N1330   1.347       .  A
C1329      H1342   1.047       .  S
N1330      C1331   1.346       .  A
N1330      N1419   1.425       .  S
C1331      H1332   1.061       .  S
C1333      N1334   1.346       .  A
C1333      H1343   1.064       .  S
N1334      C1335   1.369       .  A
N1334      N1535   1.426       .  S
C1335      H1341   1.077       .  S
C1336      N1337   1.359       .  A
C1336      H1338   1.082       .  S
N1337      C1339   1.361       .  A
N1337      C1569   1.448       .  S
C1339      H1340   1.082       .  S
Zr1344     O1345   2.437       .  S
Zr1344     O1346   2.475       .  S
Zr1344     O1347   2.507       .  S
Zr1344     O1350   2.542       .  S
Zr1344     O1352   2.418       .  S
Zr1344     O1353   2.407       .  S
Zr1344     O1355   2.363       .  S
O1345      H1401   0.990       .  S
O1345      H1409   0.990       .  S
O1346      C1366   1.291       .  A
O1347      C1368   1.300       .  A
O1348     Zr1358   2.370       .  S
O1348      C1367   1.260       .  A
O1349     Zr1357   2.414       .  S
O1350      C1367   1.300       .  A
O1351     Zr1359   2.548       .  S
O1351      C1366   1.307       .  A
O1352     Zr1359   2.372       .  S
O1353     Zr1358   2.347       .  S
O1353     Zr1359   2.349       .  S
O1353      H1388   0.964       .  S
O1354     Zr1357   2.436       .  S
O1354     Zr1374   2.369       .  S
O1354      H1391   0.965       .  S
O1355     Zr1358   2.411       .  S
Zr1356     O1381   2.437       .  S
Zr1356     O1375   2.449       .  S
Zr1356     O1383   2.420       .  S
Zr1356     O1371   2.455       .  S
Zr1356     O1363   2.435       .  S
Zr1356     O1364   2.391       .  S
Zr1356     O1365   2.408       .  S
Zr1357     O1376   2.444       .  S
Zr1357     O1369   2.434       .  S
Zr1357     O1370   2.552       .  S
Zr1357     O1363   2.393       .  S
Zr1357     O1364   2.356       .  S
Zr1358     O1360   2.453       .  S
Zr1358     O1382   2.441       .  S
Zr1358     O1384   2.388       .  S
Zr1358     O1362   2.278   1_565  S
Zr1359     O1385   2.438       .  S
Zr1359     O1386   2.438       .  S
Zr1359     O1361   2.439       .  S
Zr1359     O1362   2.339   1_565  S
O1360      H1397   0.989       .  S
O1361      H1392   0.990       .  S
O1361      H1406   0.990       .  S
O1363      H1389   0.965       .  S
O1364     Zr1374   2.384       .  S
O1365     Zr1374   2.403       .  S
O1365      H1390   0.943       .  S
C1366      C1411   1.567       .  S
C1367      C1579   1.496       .  S
O1369      H1405   0.990       .  S
O1370      C1372   1.308       .  A
O1371      C1372   1.286       .  A
C1372      C1410   1.583       .  S
O1373     Zr1374   2.437       .  S
O1373      H1402   0.990       .  S
Zr1374     O1377   2.439       .  S
Zr1374     O1378   2.455       .  S
Zr1374     O1379   2.367       .  S
O1375      C1380   1.275       .  A
O1376      H1393   0.990       .  S
O1376      H1408   0.990       .  S
O1377      H1394   0.990       .  S
O1378      H1398   0.989       .  S
O1378      H1407   0.987       .  S
O1379      C1380   1.260       .  A
C1380      C1589   1.478       .  S
O1381      H1400   0.990       .  S
O1381      H1404   0.990       .  S
O1382      H1396   0.990       .  S
O1382      H1403   0.989       .  S
O1383      C1387   1.273       .  A
O1385      H1395   0.991       .  S
C1387      C1499   1.455       .  S
C1410      C1412   1.543       .  S
C1410      C1414   1.536       .  S
C1410      C1413   1.563       .  S
C1411      C1415   1.554       .  S
C1411      C1417   1.546       .  S
C1411      C1416   1.550       .  S
C1412      C1420   1.373       .  A
C1412      C1415   1.400       .  A
C1413      C1424   1.377       .  A
C1413      C1416   1.424       .  A
C1414      C1428   1.382       .  A
C1414      C1417   1.404       .  A
C1415      C1418   1.392       .  A
C1416      C1422   1.398       .  A
C1417      C1425   1.374       .  A
C1418      N1419   1.365       .  A
C1418      H1431   1.073       .  S
N1419      C1420   1.359       .  A
C1420      H1421   1.067       .  S
C1422      N1423   1.353       .  A
C1422      H1432   1.079       .  S
N1423      C1424   1.369       .  A
N1423      N1446   1.425       .  S
C1424      H1430   1.080       .  S
C1425      N1426   1.363       .  A
C1425      H1427   1.083       .  S
N1426      C1428   1.352       .  A
C1428      H1429   1.077       .  S
C1433      C1435   1.539       .  S
C1433      C1437   1.550       .  S
C1433      C1436   1.594       .  S
C1433      C1546   1.535       .  S
C1434      C1438   1.550       .  S
C1434      C1440   1.536       .  S
C1434      C1439   1.519       .  S
C1434      C1556   1.519       .  S
C1435      C1443   1.392       .  A
C1435      C1438   1.368       .  A
C1436      C1447   1.423       .  A
C1436      C1439   1.400       .  A
C1437      C1451   1.379       .  A
C1437      C1440   1.394       .  A
C1438      C1441   1.396       .  A
C1439      C1445   1.351       .  A
C1440      C1448   1.387       .  A
C1441      N1442   1.356       .  A
C1441      H1454   1.066       .  S
N1442      C1443   1.357       .  A
N1442      N1531   1.426       .  S
C1443      H1444   1.071       .  S
C1445      N1446   1.338       .  A
C1445      H1455   1.081       .  S
N1446      C1447   1.383       .  A
C1447      H1453   1.080       .  S
C1448      N1449   1.358       .  A
C1448      H1450   1.080       .  S
N1449      C1451   1.354       .  A
N1449      C1566   1.442       .  S
C1451      H1452   1.082       .  S
Zr1456     O1457   2.437       .  S
Zr1456     O1458   2.504       .  S
Zr1456     O1459   2.486       .  S
Zr1456     O1462   2.516       .  S
Zr1456     O1464   2.413       .  S
Zr1456     O1465   2.407       .  S
Zr1456     O1467   2.356       .  S
O1457      H1513   0.989       .  S
O1457      H1521   0.990       .  S
O1458      C1478   1.298       .  A
O1459      C1480   1.296       .  A
O1460     Zr1470   2.398       .  S
O1460      C1479   1.268       .  A
O1461     Zr1469   2.426       .  S
O1462      C1479   1.294       .  A
O1463     Zr1471   2.533       .  S
O1463      C1478   1.305       .  A
O1464     Zr1471   2.377       .  S
O1465     Zr1470   2.308       .  S
O1465     Zr1471   2.364       .  S
O1465      H1500   0.978       .  S
O1466     Zr1469   2.434       .  S
O1466     Zr1486   2.374       .  S
O1466      H1503   0.963       .  S
O1467     Zr1470   2.399       .  S
Zr1468     O1493   2.436       .  S
Zr1468     O1487   2.458       .  S
Zr1468     O1495   2.418       .  S
Zr1468     O1483   2.476       .  S
Zr1468     O1475   2.428       .  S
Zr1468     O1476   2.380       .  S
Zr1468     O1477   2.375       .  S
Zr1469     O1488   2.444       .  S
Zr1469     O1481   2.437       .  S
Zr1469     O1482   2.548       .  S
Zr1469     O1475   2.389       .  S
Zr1469     O1476   2.375       .  S
Zr1470     O1472   2.444       .  S
Zr1470     O1494   2.439       .  S
Zr1470     O1496   2.413       .  S
Zr1470     O1474   2.262       .  S
Zr1471     O1497   2.439       .  S
Zr1471     O1498   2.440       .  S
Zr1471     O1473   2.442       .  S
Zr1471     O1474   2.352       .  S
O1472      H1509   0.990       .  S
O1473      H1504   0.990       .  S
O1473      H1518   0.990       .  S
O1475      H1501   0.967       .  S
O1476     Zr1486   2.354       .  S
O1477     Zr1486   2.405       .  S
O1477      H1502   0.962       .  S
C1478      C1523   1.567       .  S
C1479      C1549   1.477       .  S
O1481      H1517   0.990       .  S
O1482      C1484   1.307       .  A
O1483      C1484   1.291       .  A
C1484      C1522   1.579       .  S
O1485     Zr1486   2.440       .  S
O1485      H1514   0.991       .  S
Zr1486     O1489   2.438       .  S
Zr1486     O1490   2.439       .  S
Zr1486     O1491   2.382       .  S
O1487      C1492   1.290       .  A
O1488      H1505   0.990       .  S
O1488      H1520   0.990       .  S
O1489      H1506   0.990       .  S
O1490      H1510   0.990       .  S
O1490      H1519   0.989       .  S
O1491      C1492   1.277       .  A
C1492      C1559   1.465       .  S
O1493      H1512   0.990       .  S
O1493      H1516   0.990       .  S
O1494      H1508   0.990       .  S
O1494      H1515   0.990       .  S
O1495      C1499   1.281       .  A
O1497      H1507   0.990       .  S
C1522      C1524   1.553       .  S
C1522      C1526   1.551       .  S
C1522      C1525   1.566       .  S
C1523      C1527   1.553       .  S
C1523      C1529   1.536       .  S
C1523      C1528   1.549       .  S
C1524      C1532   1.388       .  A
C1524      C1527   1.403       .  A
C1525      C1536   1.386       .  A
C1525      C1528   1.424       .  A
C1526      C1540   1.391       .  A
C1526      C1529   1.400       .  A
C1527      C1530   1.385       .  A
C1528      C1534   1.394       .  A
C1529      C1537   1.373       .  A
C1530      N1531   1.364       .  A
C1530      H1543   1.075       .  S
N1531      C1532   1.366       .  A
C1532      H1533   1.081       .  S
C1534      N1535   1.353       .  A
C1534      H1544   1.079       .  S
N1535      C1536   1.366       .  A
C1536      H1542   1.079       .  S
C1537      N1538   1.361       .  A
C1537      H1539   1.082       .  S
N1538      C1540   1.359       .  A
C1540      H1541   1.073       .  S
C1545      C1546   1.437       .  A
C1545      C1550   1.396       .  A
C1545      F1552   1.357       .  S
C1546      C1547   1.399       .  A
C1547      C1548   1.403       .  A
C1547      F1554   1.354       .  S
C1548      C1549   1.413       .  A
C1548      F1553   1.356       .  S
C1549      C1550   1.387       .  A
C1550      F1551   1.358       .  S
C1555      C1556   1.405       .  A
C1555      C1560   1.384       .  A
C1555      F1562   1.351       .  S
C1556      C1557   1.432       .  A
C1557      C1558   1.384       .  A
C1557      F1564   1.354       .  S
C1558      C1559   1.391       .  A
C1558      F1563   1.358       .  S
C1559      C1560   1.407       .  A
C1560      F1561   1.356       .  S
C1565      C2114   1.407   1_554  A
C1565      C1570   1.408       .  A
C1565      F2120   1.357   1_554  S
C1566      C2113   1.407       .  A
C1566      C2115   1.405       .  A
C1567      C2114   1.405   1_554  A
C1567      C1568   1.404       .  A
C1567      F1574   1.357       .  S
C1568      C1569   1.408       .  A
C1568      F1573   1.357       .  S
C1569      C1570   1.409       .  A
C1570      F1571   1.357       .  S
F1572      C2113   1.357       .  S
C1575      C1576   1.393       .  A
C1575      C1580   1.388       .  A
C1575      F1582   1.349       .  S
C1576      C1577   1.434       .  A
C1577      C1578   1.408       .  A
C1577      F1584   1.354       .  S
C1578      C1579   1.396       .  A
C1578      F1583   1.357       .  S
C1579      C1580   1.423       .  A
C1580      F1581   1.349       .  S
C1585      C1586   1.404       .  A
C1585      C1590   1.394       .  A
C1585      F1592   1.356       .  S
C1586      C1587   1.402       .  A
C1587      C1588   1.393       .  A
C1587      F1594   1.357       .  S
C1588      C1589   1.421       .  A
C1588      F1593   1.354       .  S
C1589      C1590   1.400       .  A
C1590      F1591   1.356       .  S
C1595      C1596   1.408       .  A
C1595      C1600   1.391       .  A
C1595      F1602   1.358       .  S
C1596      C1597   1.406   1_455  A
C1597      C1598   1.394       .  A
C1597      F1604   1.355       .  S
C1598      C1599   1.399       .  A
C1598      F1603   1.347       .  S
C1599      C1600   1.417   1_655  A
C1600      F1601   1.356       .  S
C1605      C1606   1.386       .  A
C1605      C1610   1.381   1_655  A
C1605      F1612   1.349       .  S
C1606      C1607   1.437   1_655  A
C1607      C1608   1.408       .  A
C1607      F1614   1.355       .  S
C1608      C1609   1.395       .  A
C1608      F1613   1.357       .  S
C1609      C1610   1.428       .  A
C1610      F1611   1.352       .  S
C1615      C1620   1.401       .  A
C1615      F1622   1.357   1_655  S
C1616      C2165   1.408       .  A
C1617      C2164   1.408   1_554  A
C1617      C1618   1.403       .  A
C1617      F2172   1.357   1_554  S
C1618      C1619   1.408       .  A
C1618      F1623   1.357       .  S
C1620      F1621   1.357   1_655  S
F1624      C2165   1.357       .  S
C1625      C1626   1.429       .  A
C1625      C1630   1.384       .  A
C1625      F1632   1.353       .  S
C1626      C1627   1.394       .  A
C1627      C1628   1.408       .  A
C1627      F1634   1.358       .  S
C1628      C1629   1.439       .  A
C1628      F1633   1.355       .  S
C1629      C1630   1.386       .  A
C1630      F1631   1.350       .  S
C1635      C1636   1.403       .  A
C1635      C1640   1.389       .  A
C1635      F1642   1.356       .  S
C1636      C1637   1.405       .  A
C1637      C1638   1.390       .  A
C1637      F1644   1.357       .  S
C1638      C1639   1.418       .  A
C1638      F1643   1.356       .  S
C1639      C1640   1.404       .  A
C1640      F1641   1.346   1_655  S
C1645      C1647   1.540       .  S
C1645      C1649   1.533       .  S
C1645      C1648   1.601   1_655  S
C1645      C2177   1.538       .  S
C1646      C1650   1.547       .  S
C1646      C1652   1.537       .  S
C1646      C1651   1.552   1_655  S
C1646      C2187   1.529       .  S
C1647      C1655   1.396       .  A
C1648      C1659   1.419       .  A
C1649      C1663   1.380       .  A
C1650      C1653   1.391       .  A
C1651      C1657   1.377       .  A
C1652      C1660   1.384       .  A
C1653      N1654   1.348       .  A
C1653      H1666   1.054       .  S
N1654      N1743   1.422       .  S
C1655      H1656   1.072       .  S
C1657      N1658   1.352   1_565  A
C1657      H1667   1.066       .  S
N1658      N1859   1.428       .  S
C1659      H1665   1.081       .  S
C1660      H1662   1.082       .  S
N1661      C1663   1.357       .  A
N1661      C2164   1.441       .  S
C1663      H1664   1.082       .  S
Zr1668     O1669   2.438       .  S
Zr1668     O1670   2.507       .  S
Zr1668     O1671   2.513       .  S
Zr1668     O1674   2.521       .  S
Zr1668     O1676   2.410       .  S
Zr1668     O1677   2.408       .  S
Zr1668     O1678   2.433       .  S
Zr1668     O1679   2.270       .  S
O1669      H1725   0.990       .  S
O1669      H1733   0.990       .  S
O1670      C1690   1.300       .  A
O1671      C1692   1.301       .  A
O1672     Zr1682   2.371       .  S
O1672      C1691   1.265       .  A
O1673     Zr1681   2.421       .  S
O1673      C1692   1.281       .  A
O1674      C1691   1.296       .  A
O1675     Zr1683   2.535       .  S
O1675      C1690   1.305       .  A
O1676     Zr1681   2.430       .  S
O1676     Zr1683   2.382       .  S
O1677     Zr1682   2.309       .  S
O1677     Zr1683   2.370       .  S
O1677      H1712   0.949       .  S
O1678     Zr1681   2.440       .  S
O1678     Zr1698   2.366       .  S
O1678      H1715   0.964       .  S
O1679     Zr1682   2.308       .  S
O1679     Zr1698   2.272       .  S
Zr1680     O1705   2.429       .  S
Zr1680     O1699   2.441       .  S
Zr1680     O1707   2.468       .  S
Zr1680     O1695   2.493       .  S
Zr1680     O1687   2.439       .  S
Zr1680     O1688   2.395       .  S
Zr1680     O1689   2.405       .  S
Zr1680     O1686   2.356       .  S
Zr1681     O1700   2.445       .  S
Zr1681     O1693   2.439       .  S
Zr1681     O1694   2.524       .  S
Zr1681     O1687   2.392       .  S
Zr1681     O1688   2.381       .  S
Zr1682     O1684   2.442       .  S
Zr1682     O1706   2.439       .  S
Zr1682     O1708   2.384       .  S
Zr1682     O1689   2.339       .  S
Zr1682     O1686   2.260       .  S
Zr1683     O1709   2.439       .  S
Zr1683     O1710   2.441       .  S
Zr1683     O1685   2.444       .  S
Zr1683     O1687   2.457       .  S
Zr1683     O1686   2.354       .  S
O1684      H1721   0.990       .  S
O1685      H1716   0.990       .  S
O1685      H1730   0.990       .  S
O1687      H1713   0.965       .  S
O1688     Zr1698   2.380       .  S
O1689     Zr1698   2.381       .  S
O1689      H1714   0.969       .  S
C1690      C1735   1.569       .  S
C1691      C2174   1.483       .  S
C1692      N1974   1.446       .  S
O1693      H1729   0.990       .  S
O1694      C1696   1.301       .  A
O1695      C1696   1.296       .  A
C1696      C1734   1.582       .  S
O1697     Zr1698   2.437       .  S
O1697      H1726   0.990       .  S
Zr1698     O1701   2.441       .  S
Zr1698     O1702   2.443       .  S
Zr1698     O1703   2.377       .  S
O1699      C1704   1.276       .  A
O1700      H1717   0.990       .  S
O1700      H1732   0.990       .  S
O1701      H1718   0.990       .  S
O1702      H1722   0.989       .  S
O1702      H1731   0.988       .  S
O1703      C1704   1.263       .  A
C1704      C2184   1.479       .  S
O1705      H1724   0.990       .  S
O1705      H1728   0.990       .  S
O1706      H1720   0.990       .  S
O1706      H1727   0.990       .  S
O1707      C1711   1.292       .  A
O1708      C1711   1.275       .  A
O1709      H1719   0.991       .  S
O1710      H1723   0.990       .  S
C1711      C1823   1.463   1_655  S
C1734      C1736   1.539       .  S
C1734      C1738   1.553       .  S
C1734      C1737   1.562       .  S
C1735      C1739   1.550       .  S
C1735      C1741   1.544       .  S
C1735      C1740   1.560       .  S
C1736      C1744   1.376       .  A
C1737      C1748   1.384       .  A
C1738      C1752   1.394       .  A
C1739      C1742   1.391       .  A
C1740      C1746   1.400       .  A
C1741      C1749   1.377       .  A
C1742      H1755   1.077       .  S
N1743      C1744   1.358       .  A
C1744      H1745   1.074       .  S
C1746      H1756   1.080       .  S
N1747      C1748   1.364   1_545  A
N1747      N1770   1.429       .  S
C1748      H1754   1.079       .  S
C1749      H1751   1.082       .  S
N1750      C1752   1.361       .  A
N1750      C1916   1.453       .  S
C1752      H1753   1.075       .  S
C1757      C1759   1.552   1_655  S
C1757      C1761   1.533       .  S
C1757      C1760   1.592       .  S
C1757      C2154   1.536   1_655  S
C1758      C1762   1.554   1_655  S
C1758      C1764   1.539       .  S
C1758      C1763   1.544       .  S
C1758      C2147   1.530       .  S
C1759      C1767   1.402       .  A
C1760      C1771   1.412       .  A
C1761      C1775   1.381       .  A
C1762      C1765   1.399       .  A
C1763      C1769   1.374       .  A
C1764      C1772   1.388       .  A
C1765      N1766   1.349       .  A
C1765      H1778   1.062       .  S
N1766      N1855   1.424       .  S
C1767      H1768   1.059       .  S
C1769      N1770   1.352   1_565  A
C1769      H1779   1.068       .  S
C1771      H1777   1.075       .  S
C1772      H1774   1.082       .  S
N1773      C1775   1.360       .  A
N1773      C2167   1.451       .  S
C1775      H1776   1.082       .  S
Zr1780     O1781   2.438       .  S
Zr1780     O1782   2.475       .  S
Zr1780     O1783   2.506       .  S
Zr1780     O1786   2.538       .  S
Zr1780     O1788   2.416       .  S
Zr1780     O1789   2.408       .  S
Zr1780     O1790   2.440       .  S
Zr1780     O1791   2.368       .  S
O1781      H1837   0.990       .  S
O1781      H1845   0.990       .  S
O1782      C1802   1.291       .  A
O1783      C1804   1.298       .  A
O1784     Zr1794   2.363       .  S
O1784      C1803   1.258       .  A
O1785     Zr1793   2.422       .  S
O1785      C1804   1.282       .  A
O1786      C1803   1.299       .  A
O1787     Zr1795   2.555       .  S
O1787      C1802   1.309       .  A
O1788     Zr1793   2.436       .  S
O1788     Zr1795   2.373       .  S
O1789     Zr1794   2.357       .  S
O1789     Zr1795   2.344       .  S
O1789      H1824   0.962       .  S
O1790     Zr1793   2.438       .  S
O1790     Zr1810   2.362       .  S
O1790      H1827   0.965       .  S
O1791     Zr1794   2.413       .  S
O1791     Zr1810   2.341       .  S
Zr1792     O1817   2.430       .  S
Zr1792     O1811   2.446       .  S
Zr1792     O1819   2.429       .  S
Zr1792     O1807   2.429       .  S
Zr1792     O1799   2.435       .  S
Zr1792     O1800   2.391       .  S
Zr1792     O1801   2.390       .  S
Zr1792     O1798   2.345       .  S
Zr1793     O1812   2.437       .  S
Zr1793     O1805   2.436       .  S
Zr1793     O1806   2.558       .  S
Zr1793     O1799   2.386       .  S
Zr1793     O1800   2.358       .  S
Zr1794     O1796   2.456       .  S
Zr1794     O1818   2.441       .  S
Zr1794     O1820   2.402       .  S
Zr1794     O1801   2.323       .  S
Zr1794     O1798   2.271       .  S
Zr1795     O1821   2.436       .  S
Zr1795     O1822   2.439       .  S
Zr1795     O1797   2.442       .  S
Zr1795     O1799   2.458       .  S
Zr1795     O1798   2.342       .  S
O1796      H1833   0.989   1_455  S
O1797      H1828   0.990       .  S
O1797      H1842   0.990       .  S
O1799      H1825   0.965       .  S
O1800     Zr1810   2.381       .  S
O1801     Zr1810   2.399       .  S
O1801      H1826   0.961       .  S
C1802      C1847   1.572       .  S
C1803      C2157   1.492       .  S
C1804      N2086   1.447       .  S
O1805      H1841   0.990       .  S
O1806      C1808   1.309       .  A
O1807      C1808   1.281       .  A
C1808      C1846   1.573       .  S
O1809     Zr1810   2.436       .  S
O1809      H1838   0.990       .  S
Zr1810     O1813   2.434       .  S
Zr1810     O1814   2.442       .  S
Zr1810     O1815   2.363       .  S
O1811      C1816   1.279       .  A
O1812      H1829   0.989       .  S
O1812      H1844   0.990       .  S
O1813      H1830   0.990       .  S
O1814      H1834   0.989       .  S
O1814      H1843   0.988       .  S
O1815      C1816   1.261       .  A
C1816      C2144   1.475       .  S
O1817      H1836   0.990       .  S
O1817      H1840   0.990       .  S
O1818      H1832   0.990       .  S
O1818      H1839   0.989       .  S
O1819      C1823   1.273       .  A
O1820      C1823   1.273       .  A
O1821      H1831   0.990       .  S
O1822      H1835   0.990       .  S
C1846      C1848   1.544       .  S
C1846      C1850   1.532       .  S
C1846      C1849   1.560       .  S
C1847      C1851   1.555       .  S
C1847      C1853   1.554       .  S
C1847      C1852   1.555       .  S
C1848      C1856   1.377       .  A
C1849      C1860   1.382       .  A
C1850      C1864   1.380       .  A
C1851      C1854   1.391       .  A
C1852      C1858   1.403       .  A
C1853      C1861   1.383       .  A
C1854      H1867   1.073       .  S
N1855      C1856   1.357       .  A
C1856      H1857   1.066       .  S
C1858      H1868   1.079       .  S
N1859      C1860   1.361   1_545  A
C1860      H1866   1.078       .  S
C1861      H1863   1.082       .  S
N1862      C1864   1.352       .  A
N1862      C2028   1.441       .  S
C1864      H1865   1.074       .  S
C1869      C1871   1.546       .  S
C1869      C1873   1.537       .  S
C1869      C1872   1.580       .  S
C1869      C2124   1.538       .  S
C1870      C1874   1.554       .  S
C1870      C1876   1.530       .  S
C1870      C1875   1.556       .  S
C1870      C2134   1.531       .  S
C1871      C1879   1.399       .  A
C1871      C1874   1.376       .  A
C1872      C1883   1.408       .  A
C1872      C1875   1.413       .  A
C1873      C1887   1.378       .  A
C1873      C1876   1.380       .  A
C1874      C1877   1.391       .  A
C1875      C1881   1.379       .  A
C1876      C1884   1.383       .  A
C1877      N1878   1.348       .  A
C1877      H1890   1.045       .  S
N1878      C1879   1.346       .  A
N1878      N1967   1.424       .  S
C1879      H1880   1.063       .  S
C1881      N1882   1.349       .  A
C1881      H1891   1.065       .  S
N1882      C1883   1.369       .  A
N1882      N2083   1.427       .  S
C1883      H1889   1.076       .  S
C1884      N1885   1.361       .  A
C1884      H1886   1.081       .  S
N1885      C1887   1.358       .  A
N1885      C2117   1.446       .  S
C1887      H1888   1.082       .  S
Zr1892     O1893   2.439       .  S
Zr1892     O1894   2.472       .  S
Zr1892     O1895   2.520       .  S
Zr1892     O1898   2.541       .  S
Zr1892     O1900   2.417       .  S
Zr1892     O1901   2.413       .  S
Zr1892     O1903   2.363       .  S
O1893      H1949   0.990       .  S
O1893      H1957   0.990       .  S
O1894      C1914   1.290       .  A
O1895      C1916   1.302       .  A
O1896     Zr1906   2.374       .  S
O1896      C1915   1.261       .  A
O1897     Zr1905   2.424       .  S
O1898      C1915   1.301       .  A
O1899     Zr1907   2.553       .  S
O1899      C1914   1.309       .  A
O1900     Zr1907   2.380       .  S
O1901     Zr1906   2.350       .  S
O1901     Zr1907   2.347       .  S
O1901      H1936   0.961       .  S
O1902     Zr1905   2.433       .  S
O1902     Zr1922   2.357       .  S
O1902      H1939   0.964       .  S
O1903     Zr1906   2.410       .  S
Zr1904     O1929   2.437       .  S
Zr1904     O1923   2.445       .  S
Zr1904     O1931   2.427       .  S
Zr1904     O1919   2.451       .  S
Zr1904     O1911   2.438       .  S
Zr1904     O1912   2.394       .  S
Zr1904     O1913   2.412       .  S
Zr1905     O1924   2.443       .  S
Zr1905     O1917   2.432       .  S
Zr1905     O1918   2.561       .  S
Zr1905     O1911   2.394       .  S
Zr1905     O1912   2.354       .  S
Zr1906     O1908   2.453       .  S
Zr1906     O1930   2.441       .  S
Zr1906     O1932   2.393       .  S
Zr1906     O1910   2.278       .  S
Zr1907     O1933   2.437       .  S
Zr1907     O1934   2.437       .  S
Zr1907     O1909   2.438       .  S
Zr1907     O1910   2.333       .  S
O1908      H1945   0.989       .  S
O1909      H1940   0.990       .  S
O1909      H1954   0.989       .  S
O1911      H1937   0.964       .  S
O1912     Zr1922   2.386       .  S
O1913     Zr1922   2.409       .  S
O1913      H1938   0.945       .  S
C1914      C1959   1.568       .  S
C1915      C2127   1.494       .  S
O1917      H1953   0.990       .  S
O1918      C1920   1.310       .  A
O1919      C1920   1.285       .  A
C1920      C1958   1.586       .  S
O1921     Zr1922   2.437       .  S
O1921      H1950   0.990       .  S
Zr1922     O1925   2.437       .  S
Zr1922     O1926   2.444       .  S
Zr1922     O1927   2.361       .  S
O1923      C1928   1.276       .  A
O1924      H1941   0.990       .  S
O1924      H1956   0.990       .  S
O1925      H1942   0.990       .  S
O1926      H1946   0.989       .  S
O1926      H1955   0.988       .  S
O1927      C1928   1.259       .  A
C1928      C2137   1.477       .  S
O1929      H1948   0.990       .  S
O1929      H1952   0.990       .  S
O1930      H1944   0.990       .  S
O1930      H1951   0.989       .  S
O1931      C1935   1.273       .  A
O1933      H1943   0.990       .  S
C1935      C2047   1.462       .  S
C1958      C1960   1.543       .  S
C1958      C1962   1.542       .  S
C1958      C1961   1.571       .  S
C1959      C1963   1.558       .  S
C1959      C1965   1.548       .  S
C1959      C1964   1.552       .  S
C1960      C1968   1.375       .  A
C1960      C1963   1.401       .  A
C1961      C1972   1.383       .  A
C1961      C1964   1.426       .  A
C1962      C1976   1.388       .  A
C1962      C1965   1.401       .  A
C1963      C1966   1.392       .  A
C1964      C1970   1.402       .  A
C1965      C1973   1.380       .  A
C1966      N1967   1.366       .  A
C1966      H1979   1.073       .  S
N1967      C1968   1.359       .  A
C1968      H1969   1.072       .  S
C1970      N1971   1.354       .  A
C1970      H1980   1.079       .  S
N1971      C1972   1.371       .  A
N1971      N1994   1.430       .  S
C1972      H1978   1.080       .  S
C1973      N1974   1.365       .  A
C1973      H1975   1.083       .  S
N1974      C1976   1.356       .  A
C1976      H1977   1.076       .  S
C1981      C1983   1.540       .  S
C1981      C1985   1.555       .  S
C1981      C1984   1.597       .  S
C1981      C2094   1.536       .  S
C1982      C1986   1.547       .  S
C1982      C1988   1.542       .  S
C1982      C1987   1.524       .  S
C1982      C2104   1.518       .  S
C1983      C1991   1.394       .  A
C1983      C1986   1.364       .  A
C1984      C1995   1.427       .  A
C1984      C1987   1.400       .  A
C1985      C1999   1.382       .  A
C1985      C1988   1.395       .  A
C1986      C1989   1.396       .  A
C1987      C1993   1.356       .  A
C1988      C1996   1.393       .  A
C1989      N1990   1.355       .  A
C1989      H2002   1.065       .  S
N1990      C1991   1.356       .  A
N1990      N2079   1.426       .  S
C1991      H1992   1.071       .  S
C1993      N1994   1.339       .  A
C1993      H2003   1.081       .  S
N1994      C1995   1.385       .  A
C1995      H2001   1.080       .  S
C1996      N1997   1.360       .  A
C1996      H1998   1.080       .  S
N1997      C1999   1.355       .  A
N1997      C2114   1.445       .  S
C1999      H2000   1.083       .  S
Zr2004     O2005   2.434       .  S
Zr2004     O2006   2.501       .  S
Zr2004     O2007   2.501       .  S
Zr2004     O2010   2.519       .  S
Zr2004     O2012   2.410       .  S
Zr2004     O2013   2.415       .  S
Zr2004     O2015   2.355       .  S
O2005      H2061   0.988       .  S
O2005      H2069   0.990       .  S
O2006      C2026   1.297       .  A
O2007      C2028   1.299       .  A
O2008     Zr2018   2.397       .  S
O2008      C2027   1.269       .  A
O2009     Zr2017   2.417       .  S
O2010      C2027   1.296       .  A
O2011     Zr2019   2.547       .  S
O2011      C2026   1.307       .  A
O2012     Zr2019   2.374       .  S
O2013     Zr2018   2.321       .  S
O2013     Zr2019   2.362       .  S
O2013      H2048   0.956       .  S
O2014     Zr2017   2.450       .  S
O2014     Zr2034   2.353       .  S
O2014      H2051   0.965       .  S
O2015     Zr2018   2.396       .  S
Zr2016     O2041   2.435       .  S
Zr2016     O2035   2.432       .  S
Zr2016     O2043   2.457       .  S
Zr2016     O2031   2.492       .  S
Zr2016     O2023   2.436       .  S
Zr2016     O2024   2.391       .  S
Zr2016     O2025   2.400       .  S
Zr2017     O2036   2.444       .  S
Zr2017     O2029   2.439       .  S
Zr2017     O2030   2.539       .  S
Zr2017     O2023   2.391       .  S
Zr2017     O2024   2.393       .  S
Zr2018     O2020   2.442       .  S
Zr2018     O2042   2.438       .  S
Zr2018     O2044   2.417       .  S
Zr2018     O2022   2.258       .  S
Zr2019     O2045   2.439       .  S
Zr2019     O2046   2.441       .  S
Zr2019     O2021   2.443       .  S
Zr2019     O2022   2.358       .  S
O2020      H2057   0.990       .  S
O2021      H2052   0.990       .  S
O2021      H2066   0.991       .  S
O2023      H2049   0.965       .  S
O2024     Zr2034   2.355       .  S
O2025     Zr2034   2.394       .  S
O2025      H2050   0.963       .  S
C2026      C2071   1.576       .  S
C2027      C2097   1.479       .  S
O2029      H2065   0.990       .  S
O2030      C2032   1.305       .  A
O2031      C2032   1.294       .  A
C2032      C2070   1.585       .  S
O2033     Zr2034   2.438       .  S
O2033      H2062   0.990       .  S
Zr2034     O2037   2.433       .  S
Zr2034     O2038   2.444       .  S
Zr2034     O2039   2.374       .  S
O2035      C2040   1.285       .  A
O2036      H2053   0.990       .  S
O2036      H2068   0.990       .  S
O2037      H2054   0.990       .  S
O2038      H2058   0.991       .  S
O2038      H2067   0.990       .  S
O2039      C2040   1.274       .  A
C2040      C2107   1.462       .  S
O2041      H2060   0.990       .  S
O2041      H2064   0.990       .  S
O2042      H2056   0.990       .  S
O2042      H2063   0.990       .  S
O2043      C2047   1.290       .  A
O2045      H2055   0.991       .  S
C2070      C2072   1.552       .  S
C2070      C2074   1.555       .  S
C2070      C2073   1.566       .  S
C2071      C2075   1.554       .  S
C2071      C2077   1.540       .  S
C2071      C2076   1.550       .  S
C2072      C2080   1.387       .  A
C2072      C2075   1.405       .  A
C2073      C2084   1.387       .  A
C2073      C2076   1.423       .  A
C2074      C2088   1.394       .  A
C2074      C2077   1.404       .  A
C2075      C2078   1.386       .  A
C2076      C2082   1.393       .  A
C2077      C2085   1.374       .  A
C2078      N2079   1.365       .  A
C2078      H2091   1.076       .  S
N2079      C2080   1.366       .  A
C2080      H2081   1.081       .  S
C2082      N2083   1.355       .  A
C2082      H2092   1.078       .  S
N2083      C2084   1.367       .  A
C2084      H2090   1.079       .  S
C2085      N2086   1.362       .  A
C2085      H2087   1.082       .  S
N2086      C2088   1.360       .  A
C2088      H2089   1.075       .  S
C2093      C2094   1.438       .  A
C2093      C2098   1.398       .  A
C2093      F2100   1.357       .  S
C2094      C2095   1.400       .  A
C2095      C2096   1.403       .  A
C2095      F2102   1.354       .  S
C2096      C2097   1.413       .  A
C2096      F2101   1.356       .  S
C2097      C2098   1.387       .  A
C2098      F2099   1.358       .  S
C2103      C2104   1.403       .  A
C2103      C2108   1.384       .  A
C2103      F2110   1.351       .  S
C2104      C2105   1.434       .  A
C2105      C2106   1.382       .  A
C2105      F2112   1.355       .  S
C2106      C2107   1.391       .  A
C2106      F2111   1.359       .  S
C2107      C2108   1.407       .  A
C2108      F2109   1.354       .  S
C2113      C2118   1.401       .  A
C2115      C2116   1.399       .  A
C2115      F2122   1.357       .  S
C2116      C2117   1.411       .  A
C2116      F2121   1.357       .  S
C2117      C2118   1.408       .  A
C2118      F2119   1.357       .  S
C2123      C2124   1.390       .  A
C2123      C2128   1.388       .  A
C2123      F2130   1.349       .  S
C2124      C2125   1.437       .  A
C2125      C2126   1.406       .  A
C2125      F2132   1.355       .  S
C2126      C2127   1.395       .  A
C2126      F2131   1.358       .  S
C2127      C2128   1.424       .  A
C2128      F2129   1.348       .  S
C2133      C2134   1.404       .  A
C2133      C2138   1.393       .  A
C2133      F2140   1.354       .  S
C2134      C2135   1.405       .  A
C2135      C2136   1.392       .  A
C2135      F2142   1.357       .  S
C2136      C2137   1.418       .  A
C2136      F2141   1.353       .  S
C2137      C2138   1.400       .  A
C2138      F2139   1.356       .  S
C2143      C2144   1.411       .  A
C2143      C2148   1.393       .  A
C2143      F2150   1.358       .  S
C2144      C2145   1.406   1_455  A
C2145      C2146   1.396       .  A
C2145      F2152   1.356       .  S
C2146      C2147   1.401       .  A
C2146      F2151   1.350       .  S
C2147      C2148   1.413   1_655  A
C2148      F2149   1.357       .  S
C2153      C2154   1.388   1_655  A
C2153      C2158   1.384   1_655  A
C2153      F2160   1.348       .  S
C2154      C2155   1.434       .  A
C2155      C2156   1.407       .  A
C2155      F2162   1.355       .  S
C2156      C2157   1.397       .  A
C2156      F2161   1.357       .  S
C2157      C2158   1.424       .  A
C2158      F2159   1.349       .  S
C2163      C2168   1.403       .  A
C2163      F2170   1.357       .  S
C2165      C2166   1.406       .  A
C2166      C2167   1.410       .  A
C2166      F2171   1.357       .  S
C2168      F2169   1.357       .  S
C2173      C2174   1.417       .  A
C2173      C2178   1.406       .  A
C2173      F2180   1.356       .  S
C2174      C2175   1.389       .  A
C2175      C2176   1.398       .  A
C2175      F2182   1.358       .  S
C2176      C2177   1.440       .  A
C2176      F2181   1.358       .  S
C2177      C2178   1.397       .  A
C2178      F2179   1.355       .  S
C2183      C2184   1.404       .  A
C2183      C2188   1.396       .  A
C2183      F2190   1.353       .  S
C2184      C2185   1.413       .  A
C2185      C2186   1.392       .  A
C2185      F2192   1.356       .  S
C2186      C2187   1.410       .  A
C2186      F2191   1.357       .  S
C2187      C2188   1.401       .  A
C2188      F2189   1.351   1_655  S
