geometry optimzed in LAMMPS
_audit_creation_date              2020-12-01 
_audit_creation_method            'lammps2cif' 
_symmetry_space_group_name_H-M    'P1' 
_symmetry_Int_Tables_number       1 
_symmetry_cell_setting            triclinic 
loop_ 
_symmetry_equiv_pos_as_xyz 
  x,y,z 
_cell_length_a                    42.96004435 
_cell_length_b                    46.031715288258845 
_cell_length_c                    46.659019334536644 
_cell_angle_alpha                 89.92317082953151 
_cell_angle_beta                  90.20818397699144 
_cell_angle_gamma                 88.96940844908917 
loop_ 
_atom_site_label 
_atom_site_type_symbol 
_atom_site_fract_x 
_atom_site_fract_y 
_atom_site_fract_z 
_atom_site_charge 
In1        In  0.83919642  0.06717119  0.35604726     1.36900
C2          C  0.84113802  0.07100456  0.29954215     0.77700
O3          O  0.85980104  0.02287810  0.35010408    -0.60700
O4          O  0.81554823  0.02570587  0.37017295    -0.51600
C5          C  0.88206342  0.07770160  0.39526975     0.70400
O6          O  0.88866202  0.07416067  0.36916803    -0.46500
C7          C  0.79612634  0.10862010  0.36361785     0.75100
O8          O  0.86207653  0.08202287  0.31496391    -0.58300
O9          O  0.79050198  0.08197538  0.36710267    -0.48400
O10         O  0.81954176  0.05906172  0.31305789    -0.54800
C11         C  0.83723573  0.00953348  0.36062919     0.85300
O12         O  0.85352680  0.07617784  0.40121586    -0.56700
O13         O  0.82399779  0.11407331  0.35747850    -0.60000
In14       In  0.83663853  0.42005694  0.35626012     1.36900
C15         C  0.83946286  0.41741116  0.29946368     0.77700
O16         O  0.82086060  0.37390102  0.35954523    -0.60700
O17         O  0.78705891  0.40761504  0.36532825    -0.51600
C18         C  0.87901997  0.40985487  0.39694252     0.70400
O19         O  0.88319620  0.40231593  0.37116978    -0.46500
C20         C  0.83656598  0.47766729  0.36033669     0.75100
O21         O  0.86155833  0.40791276  0.31502549    -0.58300
O22         O  0.81455434  0.46287513  0.37033351    -0.48400
O23         O  0.81646604  0.42766994  0.31296041    -0.54800
C24         C  0.79263446  0.38067001  0.36333314     0.85300
O25         O  0.85251827  0.42097224  0.40190826    -0.56700
O26         O  0.85823351  0.46297456  0.34894057    -0.60000
In27       In  0.22674919  0.08419353  0.35798021     1.36900
C28         C  0.22455527  0.08793244  0.30116209     0.77700
O29         O  0.24047294  0.13073562  0.36297924    -0.60700
O30         O  0.27544941  0.09773943  0.36818283    -0.51600
C31         C  0.18237966  0.09218820  0.39625912     0.70400
O32         O  0.17672951  0.09016577  0.36979165    -0.46500
C33         C  0.22985193  0.02699047  0.36342876     0.75100
O34         O  0.20457907  0.10090154  0.31657089    -0.58300
O35         O  0.25174279  0.04263248  0.37242353    -0.48400
O36         O  0.24532663  0.07412724  0.31483012    -0.54800
C37         C  0.26886595  0.12459000  0.36717259     0.85300
O38         O  0.21084529  0.09134634  0.40304428    -0.56700
O39         O  0.20692677  0.04069831  0.35298615    -0.60000
In40       In  0.22915405  0.43810148  0.35836756     1.33700
C41         C  0.22631126  0.43565872  0.30126072     0.77700
O42         O  0.20769144  0.48163512  0.35317846    -0.60700
O43         O  0.25293307  0.47955253  0.37201891    -0.51600
C44         C  0.18660649  0.42679691  0.39774574     0.70400
O45         O  0.18358711  0.41951007  0.37179227    -0.46500
C46         C  0.27196131  0.39705405  0.36726782     0.75100
O47         O  0.20324711  0.42968748  0.31674213    -0.58300
O48         O  0.27806513  0.42370951  0.36907770    -0.48400
O49         O  0.25044000  0.44234058  0.31494411    -0.54800
C50         C  0.23034896  0.49525524  0.36335299     0.85300
O51         O  0.21170798  0.43945131  0.40344466    -0.56700
O52         O  0.24373836  0.39150584  0.36300172    -0.60000
In53       In  0.83972542  0.06710945  0.21167214     1.36900
C54         C  0.84136129  0.07084113  0.26826097     0.77700
O55         O  0.82384651  0.11358424  0.21005817    -0.60700
O56         O  0.79047505  0.08094480  0.20163244    -0.51600
C57         C  0.88266188  0.07907752  0.17298329     0.70400
O58         O  0.88907724  0.07531031  0.19915757    -0.46500
C59         C  0.83794227  0.00960195  0.20665694     0.75100
O60         O  0.86205545  0.08236350  0.25304538    -0.58300
O61         O  0.81628166  0.02575928  0.19685794    -0.48400
O62         O  0.82037750  0.05815999  0.25452615    -0.54800
C63         C  0.79584459  0.10763827  0.20492286     0.85300
O64         O  0.85420464  0.07696694  0.16666349    -0.56700
O65         O  0.86047116  0.02293681  0.21739824    -0.60000
In66       In  0.83824589  0.42014413  0.21120192     1.36900
C67         C  0.83981011  0.41741038  0.26806070     0.77700
O68         O  0.85921040  0.46321566  0.21854366    -0.60700
O69         O  0.81535433  0.46276328  0.19712815    -0.51600
C70         C  0.88103713  0.41095959  0.17121213     0.70400
O71         O  0.88519690  0.40366724  0.19710530    -0.46500
C72         C  0.79617304  0.37922463  0.20308784     0.75100
O73         O  0.86252040  0.40850271  0.25309391    -0.58300
O74         O  0.78960495  0.40600833  0.20108693    -0.48400
O75         O  0.81684860  0.42711606  0.25395370    -0.54800
C76         C  0.83734505  0.47772581  0.20706764     0.85300
O77         O  0.85444445  0.42177390  0.16575318    -0.56700
O78         O  0.82458608  0.37332651  0.20725373    -0.60000
In79       In  0.22676083  0.08457105  0.21289991     1.36900
C80         C  0.22437011  0.08783131  0.26975502     0.77700
O81         O  0.20566820  0.04130935  0.21856058    -0.60700
O82         O  0.24954939  0.04227175  0.19766468    -0.51600
C83         C  0.18332696  0.09435083  0.17336627     0.70400
O84         O  0.17748754  0.09452338  0.19988605    -0.46500
C85         C  0.27075950  0.12420004  0.20654083     0.75100
O86         O  0.20433120  0.10084509  0.25424737    -0.58300
O87         O  0.27669439  0.09722169  0.20630323    -0.48400
O88         O  0.24491233  0.07381908  0.25618497    -0.54800
C89         C  0.22765567  0.02704113  0.20728305     0.85300
O90         O  0.21170938  0.09069681  0.16710435    -0.56700
O91         O  0.24220629  0.13084410  0.20814326    -0.60000
In92       In  0.22670247  0.43759881  0.21262793     1.36900
C93         C  0.22569813  0.43553173  0.26978300     0.77700
O94         O  0.24219576  0.39119549  0.20786145    -0.60700
O95         O  0.27610023  0.42385698  0.20269592    -0.51600
C96         C  0.18454912  0.42348010  0.17320315     0.70400
O97         O  0.18203982  0.41608365  0.19919450    -0.46500
C98         C  0.22749366  0.49514232  0.20718561     0.75100
O99         O  0.20172074  0.43060362  0.25491630    -0.58300
O100        O  0.24927600  0.47921276  0.19745120    -0.48400
O101        O  0.24965445  0.44099172  0.25547115    -0.54800
C102        C  0.27036104  0.39706955  0.20390887     0.85300
O103        O  0.20846391  0.43802338  0.16775853    -0.56700
O104        O  0.20537839  0.48156662  0.21835594    -0.60000
N105        N  0.98730587  0.40414564  0.03384242    -0.36500
N106        N  0.03433822  0.40275737  0.48927852    -0.57000
N107        N  0.08150583  0.40374794  0.03385145    -0.36500
N108        N  0.03474233  0.40227508  0.07832055    -0.57000
C109        C  0.97055565  0.39606351  0.01067051     0.27100
C110        C  0.97076263  0.39696388  0.05732092     0.27100
C111        C  0.09881425  0.39800925  0.01029918     0.27100
C112        C  0.09903740  0.39660691  0.05706704     0.27100
C113        C  0.00873550  0.41000594  0.47375146     0.35700
C114        C  0.05909229  0.41136690  0.47388778     0.35700
C115        C  0.00956974  0.41018697  0.09393574     0.35700
C116        C  0.05997785  0.40906830  0.09413637     0.35700
C117        C  0.94328505  0.38319135  0.01953059    -0.21700
C118        C  0.94341194  0.38376943  0.04903495    -0.21700
C119        C  0.12755358  0.38656207  0.01860829    -0.21700
C120        C  0.12768542  0.38566715  0.04815722    -0.21700
C121        C  0.01716183  0.42327154  0.44835355    -0.22800
C122        C  0.04913204  0.42434491  0.44853001    -0.22800
C123        C  0.01880042  0.42208853  0.11980490    -0.22800
C124        C  0.05081608  0.42134112  0.11995507    -0.22800
C125        C  0.97809618  0.40322064  0.48187292    -0.18100
C126        C  0.97856772  0.40464444  0.08572882    -0.18100
C127        C  0.09104439  0.40318095  0.08580563    -0.18100
C128        C  0.09044701  0.40588643  0.48188958    -0.18100
H129        H  0.92488239  0.37487284  0.00611646     0.14800
H130        H  0.92514547  0.37596074  0.06281112     0.14800
H131        H  0.14676509  0.38034449  0.00484268     0.14800
H132        H  0.14704290  0.37874357  0.06158034     0.14800
H133        H  0.00189235  0.43139990  0.43155546     0.13000
H134        H  0.06336846  0.43349877  0.43182779     0.13000
H135        H  0.00404360  0.43032162  0.13681307     0.13000
H136        H  0.06560052  0.42903618  0.13706096     0.13000
H137        H  0.00672194  0.41736168  0.03363218     0.26300
H138        H  0.06085244  0.41588566  0.03411006     0.26300
N139        N  0.98347629  0.09862904  0.03426344    -0.36500
N140        N  0.03179151  0.10067100  0.07762628    -0.57000
N141        N  0.07874535  0.10176546  0.03387239    -0.36500
N142        N  0.03078561  0.09804583  0.49053704    -0.57000
C143        C  0.96791021  0.08998813  0.05781114     0.27100
C144        C  0.96729044  0.08946891  0.01119023     0.27100
C145        C  0.09588667  0.09491908  0.05736173     0.27100
C146        C  0.09514037  0.09267669  0.01080444     0.27100
C147        C  0.00634170  0.10576181  0.09385599     0.35700
C148        C  0.05659100  0.10833016  0.09359919     0.35700
C149        C  0.00526212  0.10309811  0.47428961     0.35700
C150        C  0.05546123  0.10402145  0.47392891     0.35700
C151        C  0.94147580  0.07519065  0.04960075    -0.21700
C152        C  0.94103589  0.07495229  0.02010112    -0.21700
C153        C  0.12342710  0.08118921  0.04913936    -0.21700
C154        C  0.12297915  0.07982884  0.01967170    -0.21700
C155        C  0.01490095  0.11724544  0.12010721    -0.22800
C156        C  0.04682412  0.11891013  0.11993690    -0.22800
C157        C  0.01366826  0.11289151  0.44734336    -0.22800
C158        C  0.04564059  0.11342253  0.44709341    -0.22800
C159        C  0.97615650  0.09679047  0.08634398    -0.18100
C160        C  0.97511974  0.09503803  0.48245732    -0.18100
C161        C  0.08646412  0.09776549  0.48196039    -0.18100
C162        C  0.08777281  0.10230629  0.08578928    -0.18100
H163        H  0.92419432  0.06569433  0.06339933     0.14800
H164        H  0.92339712  0.06523787  0.00675298     0.14800
H165        H  0.14200371  0.07316531  0.06290764     0.14800
H166        H  0.14116404  0.07064588  0.00628385     0.14800
H167        H  0.99980372  0.12293760  0.13782862     0.13000
H168        H  0.06122585  0.12617246  0.13750673     0.13000
H169        H  0.99841828  0.11800551  0.42944984     0.13000
H170        H  0.06000120  0.11913964  0.42900326     0.13000
H171        H  0.00221365  0.11267354  0.03391793     0.26300
H172        H  0.05874348  0.11490093  0.03344826     0.26300
In173      In  0.72753780  0.17217896  0.35773862     1.36900
C174        C  0.72550432  0.16893487  0.30117274     0.77700
O175        O  0.70510256  0.21544827  0.34933861    -0.60700
O176        O  0.74798829  0.21475772  0.37235554    -0.51600
C177        C  0.68628942  0.16092192  0.39835469     0.70400
O178        O  0.68194039  0.15424472  0.37236539    -0.46500
C179        C  0.77172167  0.13137510  0.36441187     0.75100
O180        O  0.70264801  0.16149297  0.31635171    -0.58300
O181        O  0.77754833  0.15817597  0.36518604    -0.48400
O182        O  0.74881765  0.17755603  0.31493950    -0.54800
C183        C  0.72613663  0.22986909  0.36131521     0.85300
O184        O  0.71213159  0.17258663  0.40339787    -0.56700
O185        O  0.74325411  0.12559330  0.36232669    -0.60000
In186      In  0.72438651  0.31936672  0.35587828     1.36900
C187        C  0.72353320  0.32075982  0.29905548     0.77700
O188        O  0.73986801  0.36563328  0.35884876    -0.60700
O189        O  0.77372715  0.33197834  0.36528805    -0.51600
C190        C  0.68346706  0.33429403  0.39606235     0.70400
O191        O  0.67970446  0.34130390  0.37003727    -0.46500
C192        C  0.72528478  0.26179819  0.36105197     0.75100
O193        O  0.69944591  0.32699371  0.31348339    -0.58300
O194        O  0.74650063  0.27724657  0.37159127    -0.48400
O195        O  0.74733407  0.31429648  0.31366343    -0.54800
C196        C  0.76806839  0.35891931  0.36315030     0.85300
O197        O  0.70804601  0.31974850  0.40119731    -0.56700
O198        O  0.70337586  0.27586389  0.34906534    -0.60000
In199      In  0.33604969  0.18681203  0.36117849     1.36900
C200        C  0.33851920  0.18370513  0.30432007     0.77700
O201        O  0.32122338  0.14060840  0.36504393    -0.60700
O202        O  0.28654100  0.17375640  0.36984070    -0.51600
C203        C  0.37851788  0.17409081  0.40112288     0.70400
O204        O  0.38220816  0.16809720  0.37492407    -0.46500
C205        C  0.33622000  0.24437223  0.36375487     0.75100
O206        O  0.36106595  0.17537020  0.31994555    -0.58300
O207        O  0.31483886  0.22997649  0.37541521    -0.48400
O208        O  0.31494631  0.19281492  0.31779876    -0.54800
C209        C  0.29279575  0.14688388  0.36815743     0.85300
O210        O  0.35278128  0.18641500  0.40689394    -0.56700
O211        O  0.35741715  0.22930995  0.35216282    -0.60000
In212      In  0.33880129  0.33348021  0.35694271     1.36900
C213        C  0.34019600  0.33688952  0.29996190     0.77700
O214        O  0.35823890  0.28908010  0.34956699    -0.60700
O215        O  0.31589871  0.29263199  0.37300508    -0.51600
C216        C  0.38205092  0.34308895  0.39620088     0.70400
O217        O  0.38481640  0.35170104  0.37060736    -0.46500
C218        C  0.29606862  0.37431239  0.36690655     0.75100
O219        O  0.36343566  0.34351172  0.31511956    -0.58300
O220        O  0.28982929  0.34764438  0.36698930    -0.48400
O221        O  0.31672604  0.32919087  0.31392804    -0.54800
C222        C  0.33671311  0.27617396  0.36241289     0.85300
O223        O  0.35701830  0.33026782  0.40143990    -0.56700
O224        O  0.32439943  0.37995334  0.36368702    -0.60000
In225      In  0.33869956  0.18603211  0.21576365     1.36900
C226        C  0.33924061  0.18374939  0.27286494     0.77700
O227        O  0.35932369  0.22954670  0.22314539    -0.60700
O228        O  0.31635503  0.22823597  0.20035944    -0.51600
C229        C  0.38192218  0.17438042  0.17602728     0.70400
O230        O  0.38536714  0.16722719  0.20205230    -0.46500
C231        C  0.29523469  0.14615564  0.20724868     0.75100
O232        O  0.36234548  0.17521802  0.25820318    -0.58300
O233        O  0.28962680  0.17305315  0.20463383    -0.48400
O234        O  0.31638245  0.19306777  0.25837741    -0.54800
C235        C  0.33769147  0.24362967  0.21077988     0.85300
O236        O  0.35617832  0.18683839  0.17052956    -0.56700
O237        O  0.32329583  0.13966148  0.21251137    -0.60000
In238      In  0.33781886  0.33317816  0.21168352     1.36900
C239        C  0.33997079  0.33687388  0.26851547     0.77700
O240        O  0.32303933  0.37999449  0.20722647    -0.60700
O241        O  0.28868960  0.34769085  0.20195804    -0.51600
C242        C  0.37920856  0.34164748  0.17052354     0.70400
O243        O  0.38398006  0.34887076  0.19629321    -0.46500
C244        C  0.33755617  0.27551775  0.20965170     0.75100
O245        O  0.36242209  0.34497237  0.25314875    -0.58300
O246        O  0.31544717  0.29078690  0.19927921    -0.48400
O247        O  0.31685535  0.32774126  0.25478868    -0.54800
C248        C  0.29470882  0.37439836  0.20353747     0.85300
O249        O  0.35273320  0.33114209  0.16579092    -0.56700
O250        O  0.35970250  0.28976252  0.22001910    -0.60000
In251      In  0.72758577  0.17061277  0.21323146     1.36900
C252        C  0.72559797  0.16848345  0.26987540     0.77700
O253        O  0.74304702  0.12399727  0.20900621    -0.60700
O254        O  0.77680877  0.15675304  0.20363467    -0.51600
C255        C  0.68441000  0.15997053  0.17425808     0.70400
O256        O  0.68119950  0.15287457  0.20023358    -0.46500
C257        C  0.72885419  0.22796301  0.20802392     0.75100
O258        O  0.70256621  0.16130980  0.25472401    -0.58300
O259        O  0.74988290  0.21184953  0.19727466    -0.48400
O260        O  0.74921760  0.17604938  0.25605370    -0.54800
C261        C  0.77121342  0.12998733  0.20513685     0.85300
O262        O  0.71000835  0.17159829  0.16845557    -0.56700
O263        O  0.70739413  0.21468379  0.22052097    -0.60000
In264      In  0.72863486  0.31730638  0.21106093     1.36900
C265        C  0.72461329  0.32035991  0.26771404     0.77700
O266        O  0.70759684  0.27441844  0.21905731    -0.60700
O267        O  0.75053066  0.27457927  0.19642746    -0.51600
C268        C  0.68627568  0.33065516  0.17151347     0.70400
O269        O  0.68369207  0.33847742  0.19733476    -0.46500
C270        C  0.77222561  0.35688644  0.20320897     0.75100
O271        O  0.70164176  0.32653444  0.25174418    -0.58300
O272        O  0.77839519  0.32995296  0.20256157    -0.48400
O273        O  0.74920293  0.31323268  0.25469188    -0.54800
C274        C  0.72908143  0.25977426  0.20740558     0.85300
O275        O  0.71092819  0.31641382  0.16596171    -0.56700
O276        O  0.74382265  0.36330844  0.20617358    -0.60000
N277        N  0.48586286  0.15381399  0.03622843    -0.36500
N278        N  0.53244893  0.15281794  0.08018714    -0.57000
N279        N  0.57998541  0.14919076  0.03568043    -0.36500
N280        N  0.53322617  0.14700141  0.49123592    -0.57000
C281        C  0.46845694  0.14908895  0.05988739     0.27100
C282        C  0.46901735  0.14536775  0.01328360     0.27100
C283        C  0.59648742  0.14190742  0.05941497     0.27100
C284        C  0.59712733  0.14092151  0.01272225     0.27100
C285        C  0.50786043  0.16247297  0.09569133     0.35700
C286        C  0.55815165  0.15895550  0.09554618     0.35700
C287        C  0.50804564  0.15545019  0.47567608     0.35700
C288        C  0.55850131  0.15369029  0.47547982     0.35700
C289        C  0.44044705  0.13694256  0.05193734    -0.21700
C290        C  0.44081085  0.13455323  0.02248367    -0.21700
C291        C  0.62425384  0.12835723  0.05146698    -0.21700
C292        C  0.62470367  0.12783614  0.02194113    -0.21700
C293        C  0.51798637  0.17501658  0.12096445    -0.22800
C294        C  0.54992452  0.17270631  0.12091497    -0.22800
C295        C  0.51736649  0.16756436  0.44994233    -0.22800
C296        C  0.54936044  0.16637689  0.44978678    -0.22800
C297        C  0.47651874  0.15779286  0.08801835    -0.18100
C298        C  0.47687136  0.15122808  0.48422938    -0.18100
C299        C  0.58956322  0.14739826  0.48388951    -0.18100
C300        C  0.58865476  0.15042439  0.08765933    -0.18100
H301        H  0.42144095  0.13109035  0.06583756     0.14800
H302        H  0.42201575  0.12670820  0.00924419     0.14800
H303        H  0.64272528  0.12055212  0.06547825     0.14800
H304        H  0.64347860  0.11941824  0.00876922     0.14800
H305        H  0.50388953  0.18456333  0.13778882     0.13000
H306        H  0.56527980  0.18016266  0.13769593     0.13000
H307        H  0.50270911  0.17659929  0.43313733     0.13000
H308        H  0.56414736  0.17426287  0.43285156     0.13000
H309        H  0.50601821  0.16601147  0.03535853     0.26300
H310        H  0.56032231  0.16272586  0.03512222     0.26300
N311        N  0.48653548  0.35264582  0.03371388    -0.36500
N312        N  0.53315003  0.35048979  0.07854600    -0.57000
N313        N  0.58071810  0.35298073  0.03470372    -0.36500
N314        N  0.53423438  0.35816594  0.49012712    -0.57000
C315        C  0.46882554  0.35737201  0.05724533     0.27100
C316        C  0.46949699  0.36137872  0.01074559     0.27100
C317        C  0.59742060  0.35819721  0.05869319     0.27100
C318        C  0.59818478  0.36120988  0.01215578     0.27100
C319        C  0.50797751  0.34276211  0.09383887     0.35700
C320        C  0.55839074  0.34289731  0.09437363     0.35700
C321        C  0.50928620  0.35284742  0.47337641     0.35700
C322        C  0.55962180  0.35255149  0.47389677     0.35700
C323        C  0.44032206  0.36944267  0.04910368    -0.21700
C324        C  0.44070148  0.37183367  0.01972811    -0.21700
C325        C  0.62556639  0.37044772  0.05131739    -0.21700
C326        C  0.62612608  0.37215696  0.02186839    -0.21700
C327        C  0.51721905  0.33018460  0.11957842    -0.22800
C328        C  0.54924109  0.33024227  0.11991241    -0.22800
C329        C  0.51882850  0.34419643  0.44630319    -0.22800
C330        C  0.55075239  0.34397775  0.44663811    -0.22800
C331        C  0.47690858  0.34902839  0.08555159    -0.18100
C332        C  0.47806120  0.35684293  0.48202109    -0.18100
C333        C  0.59060237  0.35617154  0.48324434    -0.18100
C334        C  0.58935492  0.34900308  0.08658092    -0.18100
H335        H  0.42102561  0.37546977  0.06284237     0.14800
H336        H  0.42176349  0.37994007  0.00641858     0.14800
H337        H  0.64422350  0.37653292  0.06562985     0.14800
H338        H  0.64520907  0.37986389  0.00900857     0.14800
H339        H  0.50245021  0.32206380  0.13642346     0.13000
H340        H  0.56402365  0.32211074  0.13706786     0.13000
H341        H  0.50437048  0.33842979  0.42822307     0.13000
H342        H  0.56561350  0.33798584  0.42885524     0.13000
H343        H  0.50728779  0.34066464  0.03298001     0.26300
H344        H  0.56077675  0.34052020  0.03353573     0.26300
C345        C  0.66207157  0.33680146  0.14959877    -0.05300
C346        C  0.66269064  0.32110339  0.12382672    -0.32700
C347        C  0.63922276  0.32498765  0.10327164     0.36500
C348        C  0.61468283  0.34502832  0.10814859    -0.05700
C349        C  0.61437059  0.36130313  0.13355693    -0.32600
C350        C  0.63768925  0.35717407  0.15433125     0.36400
H351        H  0.68104902  0.30519537  0.11981551     0.16800
O352        O  0.63970505  0.30825960  0.07894118    -0.60100
H353        H  0.59583277  0.37708767  0.13735754     0.16800
O354        O  0.63675047  0.37356474  0.17885665    -0.60200
H355        H  0.62086456  0.36441269  0.19113091     0.43800
H356        H  0.65654464  0.31620298  0.06691446     0.43700
C357        C  0.66009662  0.15606776  0.15222340    -0.05300
C358        C  0.66226117  0.17180015  0.12653411    -0.32700
C359        C  0.63923833  0.17000495  0.10551973     0.36500
C360        C  0.61376582  0.15170828  0.10957895    -0.05700
C361        C  0.61167111  0.13556137  0.13505208    -0.32600
C362        C  0.63452081  0.13776334  0.15642101     0.36400
H363        H  0.68154282  0.18619873  0.12294402     0.16800
O364        O  0.64164281  0.18652862  0.08116605    -0.60100
H365        H  0.59207223  0.12148602  0.13845700     0.16800
O366        O  0.63144966  0.12219263  0.18130350    -0.60200
H367        H  0.64030381  0.10264065  0.17701341     0.43800
H368        H  0.62953277  0.20459667  0.08518396     0.43700
C369        C  0.40316015  0.34444052  0.14797672    -0.05300
C370        C  0.42813485  0.36325307  0.15222135    -0.32700
C371        C  0.45199532  0.36516547  0.13197535     0.36500
C372        C  0.45170157  0.34747383  0.10737430    -0.05700
C373        C  0.42665742  0.32879531  0.10299696    -0.32600
C374        C  0.40228428  0.32751194  0.12279002     0.36400
H375        H  0.42911126  0.37665791  0.17125998     0.16800
O376        O  0.47559030  0.38432955  0.13645896    -0.60100
H377        H  0.42601304  0.31518471  0.08407786     0.16800
O378        O  0.37843469  0.30872746  0.11784540    -0.60200
H379        H  0.36372438  0.31946653  0.10507667     0.43800
H380        H  0.46874410  0.40248333  0.12665695     0.43700
C381        C  0.40600730  0.16926260  0.15362359    -0.05300
C382        C  0.40338526  0.18399444  0.12725741    -0.32700
C383        C  0.42602101  0.18047078  0.10590420     0.36500
C384        C  0.45164305  0.16138359  0.11026391    -0.05700
C385        C  0.45400647  0.14623518  0.13640582    -0.32600
C386        C  0.43177720  0.15033273  0.15808720     0.36400
H387        H  0.38396409  0.19882279  0.12332585     0.16800
O388        O  0.42298525  0.19601856  0.08091673    -0.60100
H389        H  0.47341990  0.13133914  0.14012824     0.16800
O390        O  0.43519173  0.13521755  0.18327714    -0.60200
H391        H  0.44857580  0.14744968  0.19551402     0.43800
H392        H  0.43617846  0.21327355  0.08355897     0.43700
C393        C  0.45287732  0.35464603  0.46021085    -0.05300
C394        C  0.43089280  0.33273717  0.46322028    -0.32700
C395        C  0.40765429  0.32899449  0.44266305     0.36500
C396        C  0.40619146  0.34721530  0.41834988    -0.05700
C397        C  0.42813884  0.36925363  0.41532424    -0.32600
C398        C  0.45110304  0.37332916  0.43629082     0.36400
H399        H  0.43206279  0.31816290  0.48147218     0.16800
O400        O  0.38684091  0.30705924  0.44635862    -0.60100
H401        H  0.42727817  0.38354983  0.39686289     0.16800
O402        O  0.47198091  0.39528378  0.43307152    -0.60200
H403        H  0.46097014  0.41303945  0.43996172     0.43800
H404        H  0.39595500  0.29013698  0.43602726     0.43700
C405        C  0.45105280  0.15575382  0.46303848    -0.05300
C406        C  0.42687255  0.17563421  0.46946089    -0.32700
C407        C  0.40256172  0.18104455  0.45004380     0.36500
C408        C  0.40266383  0.16733768  0.42304079    -0.05700
C409        C  0.42663428  0.14720201  0.41669463    -0.32600
C410        C  0.45047758  0.14106601  0.43655349     0.36400
H411        H  0.42693263  0.18720052  0.48967645     0.16800
O412        O  0.37946874  0.20057671  0.45736019    -0.60100
H413        H  0.42681002  0.13595863  0.39630968     0.16800
O414        O  0.47259372  0.12012727  0.43031937    -0.60200
H415        H  0.48417307  0.12755630  0.41355946     0.43800
H416        H  0.36404365  0.18909430  0.46810041     0.43700
C417        C  0.61634759  0.35264371  0.46216531    -0.05300
C418        C  0.61753121  0.37058757  0.43783785    -0.32700
C419        C  0.63921063  0.36498429  0.41604135     0.36500
C420        C  0.66084645  0.34174045  0.41888117    -0.05700
C421        C  0.66050903  0.32471109  0.44387218    -0.32600
C422        C  0.63835156  0.32981762  0.46525041     0.36400
H423        H  0.60084413  0.38834624  0.43531044     0.16800
O424        O  0.63919915  0.38248964  0.39223889    -0.60100
H425        H  0.67678143  0.30662559  0.44642406     0.16800
O426        O  0.63709105  0.31125418  0.48824064    -0.60200
H427        H  0.65421452  0.31715776  0.50116962     0.43800
H428        H  0.62281418  0.37467178  0.37952023     0.43700
C429        C  0.66269594  0.15609992  0.42095115    -0.05300
C430        C  0.63749831  0.13780100  0.41558195    -0.32700
C431        C  0.61422442  0.13390855  0.43616129     0.36500
C432        C  0.61521710  0.14922203  0.46233167    -0.05700
C433        C  0.64071959  0.16708215  0.46787235    -0.32600
C434        C  0.66440799  0.17037541  0.44765191     0.36400
H435        H  0.63584906  0.12637532  0.39536392     0.16800
O436        O  0.59036738  0.11540227  0.43027159    -0.60100
H437        H  0.64203334  0.17893288  0.48787840     0.16800
O438        O  0.68885985  0.18799420  0.45413877    -0.60200
H439        H  0.68234366  0.20761750  0.44737412     0.43800
H440        H  0.59486924  0.09774985  0.44187814     0.43700
C441        C  0.11639955  0.40646786  0.10747268    -0.05300
C442        C  0.11715523  0.38938808  0.13249595    -0.32700
C443        C  0.13944014  0.39421709  0.15403235     0.36500
C444        C  0.16134773  0.41647671  0.15071372    -0.05700
C445        C  0.16101065  0.43283882  0.12528952    -0.32600
C446        C  0.13873801  0.42815711  0.10397575     0.36400
H447        H  0.10013414  0.37257085  0.13546796     0.16800
O448        O  0.13945536  0.37719061  0.17817904    -0.60100
H449        H  0.17761451  0.44998885  0.12218063     0.16800
O450        O  0.13855728  0.44542047  0.07999295    -0.60200
H451        H  0.12320472  0.46121142  0.08405962     0.43800
H452        H  0.15324998  0.36033727  0.17359502     0.43700
C453        C  0.15870916  0.09704767  0.15138295    -0.05300
C454        C  0.16275545  0.11512830  0.12751334    -0.32700
C455        C  0.13952999  0.11765340  0.10642277     0.36500
C456        C  0.11228294  0.10111988  0.10851533    -0.05700
C457        C  0.10863537  0.08262913  0.13217437    -0.32600
C458        C  0.13142912  0.08072353  0.15360656     0.36400
H459        H  0.18373624  0.12767316  0.12548419     0.16800
O460        O  0.14375825  0.13615617  0.08375655    -0.60100
H461        H  0.08809672  0.06942021  0.13389914     0.16800
O462        O  0.12722554  0.06221758  0.17627862    -0.60200
H463        H  0.13483375  0.04295665  0.16950580     0.43800
H464        H  0.13200717  0.15415719  0.08880899     0.43700
C465        C  0.90560324  0.40822389  0.14914427    -0.05300
C466        C  0.90338086  0.42523697  0.12416325    -0.32700
C467        C  0.92712610  0.42458873  0.10370748     0.36500
C468        C  0.95338926  0.40619813  0.10763271    -0.05700
C469        C  0.95543339  0.38888217  0.13238432    -0.32600
C470        C  0.93189671  0.38985762  0.15308048     0.36400
H471        H  0.88350625  0.43967583  0.12077620     0.16800
O472        O  0.92451660  0.44211260  0.07997950    -0.60100
H473        H  0.97535977  0.37446910  0.13560746     0.16800
O474        O  0.93485041  0.37270300  0.17701580    -0.60200
H475        H  0.92470493  0.35422389  0.17190961     0.43800
H476        H  0.93608031  0.45988918  0.08489766     0.43700
C477        C  0.90670933  0.08472210  0.15137978    -0.05300
C478        C  0.93533796  0.06970415  0.15311331    -0.32700
C479        C  0.95805208  0.07337413  0.13204894     0.36500
C480        C  0.95263361  0.09301894  0.10931735    -0.05700
C481        C  0.92418503  0.10846957  0.10790986    -0.32600
C482        C  0.90110365  0.10409435  0.12849318     0.36400
H483        H  0.93969374  0.05431023  0.17032203     0.16800
O484        O  0.98478874  0.05661008  0.13294792    -0.60100
H485        H  0.91974920  0.12365708  0.09054285     0.16800
O486        O  0.87353535  0.11947419  0.12653972    -0.60200
H487        H  0.86010098  0.10774735  0.11387179     0.43800
H488        H  0.99711212  0.06424070  0.14920483     0.43700
C489        C  0.16257584  0.42104704  0.41961138    -0.05300
C490        C  0.13886800  0.40130353  0.41360522    -0.32700
C491        C  0.11565461  0.39561803  0.43380980     0.36500
C492        C  0.11553217  0.41025561  0.46033354    -0.05700
C493        C  0.13926907  0.42993242  0.46633230    -0.32600
C494        C  0.16284853  0.43508898  0.44646483     0.36400
H495        H  0.13847048  0.38994942  0.39328562     0.16800
O496        O  0.09373204  0.37510806  0.42788936    -0.60100
H497        H  0.13942573  0.44147861  0.48655763     0.16800
O498        O  0.18548303  0.45457753  0.45326240    -0.60200
H499        H  0.20175839  0.44304244  0.46352894     0.43800
H500        H  0.08111767  0.38313313  0.41179112     0.43700
C501        C  0.15757957  0.09433248  0.41768573    -0.05300
C502        C  0.13283743  0.07490379  0.41648119    -0.32700
C503        C  0.10979366  0.07542796  0.43757873     0.36500
C504        C  0.11079783  0.09631120  0.45956796    -0.05700
C505        C  0.13543813  0.11586663  0.46058317    -0.32600
C506        C  0.15889493  0.11482094  0.43993127     0.36400
H507        H  0.13192036  0.05873408  0.39964934     0.16800
O508        O  0.08657727  0.05535862  0.43675544    -0.60100
H509        H  0.13644321  0.13194029  0.47749322     0.16800
O510        O  0.18282001  0.13408592  0.44147207    -0.60200
H511        H  0.17598908  0.15089638  0.42956771     0.43800
H512        H  0.09611265  0.03731142  0.94705898     0.43700
C513        C  0.90359390  0.40707252  0.41927089    -0.05300
C514        C  0.92979185  0.38896380  0.41466625    -0.32700
C515        C  0.95397469  0.38722443  0.43492567     0.36500
C516        C  0.95258170  0.40420473  0.46003099    -0.05700
C517        C  0.92643037  0.42228767  0.46460548    -0.32600
C518        C  0.90200308  0.42362748  0.44469274     0.36400
H519        H  0.93153421  0.37606780  0.39531428     0.16800
O520        O  0.97897060  0.36901120  0.42990830    -0.60100
H521        H  0.92506295  0.43562510  0.48369789     0.16800
O522        O  0.87737733  0.44227559  0.44973475    -0.60200
H523        H  0.86275463  0.43106860  0.46165628     0.43800
H524        H  0.97386708  0.35054150  0.43962523     0.43700
C525        C  0.95136521  0.09064946  0.45982400    -0.05300
C526        C  0.92429783  0.10812736  0.45940097    -0.32700
C527        C  0.90145112  0.10406174  0.43841886     0.36500
C528        C  0.90590144  0.08270675  0.41722541    -0.05700
C529        C  0.93307929  0.06540672  0.41746335    -0.32600
C530        C  0.95563499  0.06904740  0.43878430     0.36400
H531        H  0.92092238  0.12491084  0.47541020     0.16800
O532        O  0.87545774  0.12180466  0.43805643    -0.60100
H533        H  0.93645529  0.04856984  0.40150214     0.16800
O534        O  0.98121177  0.05075765  0.43962603    -0.60200
H535        H  0.99496264  0.05742720  0.42400614     0.43800
H536        H  0.86129068  0.11347819  0.45251854     0.43700
In537      In  0.83918461  0.06699729  0.85614736     1.36900
C538        C  0.84126042  0.07098528  0.79966675     0.77700
O539        O  0.85986283  0.02276047  0.85001804    -0.60700
O540        O  0.81553187  0.02548054  0.86997400    -0.51600
C541        C  0.88181904  0.07722076  0.89562175     0.70400
O542        O  0.88851041  0.07415288  0.86948436    -0.46500
C543        C  0.79614404  0.10847944  0.86372394     0.75100
O544        O  0.86225754  0.08184187  0.81514233    -0.58300
O545        O  0.79045018  0.08182228  0.86698575    -0.48400
O546        O  0.81957115  0.05912120  0.81312285    -0.54800
C547        C  0.83727364  0.00936701  0.86044163     0.85300
O548        O  0.85329283  0.07537626  0.90150845    -0.56700
O549        O  0.82408025  0.11393293  0.85782905    -0.60000
In550      In  0.83679562  0.41989736  0.85615399     1.36900
C551        C  0.83975144  0.41721859  0.79935941     0.77700
O552        O  0.82101376  0.37374426  0.85958895    -0.60700
O553        O  0.78719728  0.40748626  0.86514361    -0.51600
C554        C  0.87902748  0.40977704  0.89698002     0.70400
O555        O  0.88321851  0.40206514  0.87125835    -0.46500
C556        C  0.83664703  0.47749792  0.86010694     0.75100
O557        O  0.86189870  0.40787721  0.81495125    -0.58300
O558        O  0.81463468  0.46269550  0.87008155    -0.48400
O559        O  0.81664315  0.42728523  0.81282805    -0.54800
C560        C  0.79277487  0.38053259  0.86327929     0.85300
O561        O  0.85258705  0.42107604  0.90183747    -0.56700
O562        O  0.85836382  0.46282309  0.84876548    -0.60000
In563      In  0.22668675  0.08431656  0.85787397     1.36900
C564        C  0.22463745  0.08830993  0.80108785     0.77700
O565        O  0.24044311  0.13087145  0.86268896    -0.60700
O566        O  0.27530522  0.09782673  0.86835354    -0.51600
C567        C  0.18232123  0.09201957  0.89624968     0.70400
O568        O  0.17661879  0.08983267  0.86980853    -0.46500
C569        C  0.22994806  0.02708675  0.86302734     0.75100
O570        O  0.20443109  0.10098422  0.81648774    -0.58300
O571        O  0.25162592  0.04276204  0.87239670    -0.48400
O572        O  0.24558504  0.07473983  0.81476155    -0.54800
C573        C  0.26879507  0.12468427  0.86710782     0.85300
O574        O  0.21080823  0.09152128  0.90294530    -0.56700
O575        O  0.20718466  0.04076395  0.85225606    -0.60000
In576      In  0.22928764  0.43814947  0.85840219     1.33700
C577        C  0.22645614  0.43552482  0.80131896     0.77700
O578        O  0.20797061  0.48167242  0.85260394    -0.60700
O579        O  0.25289409  0.47966852  0.87209481    -0.51600
C580        C  0.18672218  0.42699189  0.89787782     0.70400
O581        O  0.18361433  0.41983207  0.87190071    -0.46500
C582        C  0.27212743  0.39709808  0.86724483     0.75100
O583        O  0.20347689  0.42930451  0.81681466    -0.58300
O584        O  0.27824067  0.42375329  0.86906273    -0.48400
O585        O  0.25050156  0.44249488  0.81498290    -0.54800
C586        C  0.23047130  0.49533601  0.86301977     0.85300
O587        O  0.21190714  0.43951143  0.90356848    -0.56700
O588        O  0.24390705  0.39156713  0.86295512    -0.60000
In589      In  0.83987011  0.06725104  0.71178640     1.36900
C590        C  0.84149624  0.07090142  0.76838573     0.77700
O591        O  0.82389953  0.11369075  0.71044756    -0.60700
O592        O  0.79069273  0.08106725  0.70138568    -0.51600
C593        C  0.88288220  0.07937745  0.67319736     0.70400
O594        O  0.88927812  0.07526702  0.69932445    -0.46500
C595        C  0.83805590  0.00973394  0.70670349     0.75100
O596        O  0.86220321  0.08243483  0.75319687    -0.58300
O597        O  0.81633159  0.02589714  0.69703546    -0.48400
O598        O  0.82049282  0.05828230  0.75462023    -0.54800
C599        C  0.79597614  0.10774305  0.70494774     0.85300
O600        O  0.85440018  0.07753869  0.66687719    -0.56700
O601        O  0.86064801  0.02306904  0.71732140    -0.60000
In602      In  0.83855272  0.42026420  0.71110204     1.36900
C603        C  0.84014178  0.41729775  0.76795479     0.77700
O604        O  0.85927329  0.46338448  0.71874799    -0.60700
O605        O  0.81563140  0.46287010  0.69697529    -0.51600
C606        C  0.88142260  0.41127063  0.67113000     0.70400
O607        O  0.88550301  0.40379869  0.69698421    -0.46500
C608        C  0.79646315  0.37934754  0.70291532     0.75100
O609        O  0.86294471  0.40863820  0.75296882    -0.58300
O610        O  0.78986494  0.40614115  0.70116271    -0.48400
O611        O  0.81710583  0.42686765  0.75386699    -0.54800
C612        C  0.83748716  0.47786739  0.70711555     0.85300
O613        O  0.85487619  0.42219604  0.66569206    -0.56700
O614        O  0.82491822  0.37344209  0.70682263    -0.60000
In615      In  0.22679719  0.08458156  0.71282942     1.36900
C616        C  0.22446963  0.08817400  0.76967843     0.77700
O617        O  0.20570238  0.04130111  0.71855171    -0.60700
O618        O  0.24970413  0.04223709  0.69788902    -0.51600
C619        C  0.18347051  0.09415439  0.67318631     0.70400
O620        O  0.17756816  0.09450079  0.69969498    -0.46500
C621        C  0.27069492  0.12421679  0.70620153     0.75100
O622        O  0.20416093  0.10076936  0.75413676    -0.58300
O623        O  0.27667009  0.09724636  0.70616510    -0.48400
O624        O  0.24525887  0.07445488  0.75614235    -0.54800
C625        C  0.22776290  0.02701628  0.70741624     0.85300
O626        O  0.21186215  0.09044717  0.66698573    -0.56700
O627        O  0.24212787  0.13085142  0.70768503    -0.60000
In628      In  0.22687208  0.43754655  0.71268799     1.36900
C629        C  0.22584052  0.43540515  0.76984265     0.77700
O630        O  0.24240156  0.39116239  0.70801334    -0.60700
O631        O  0.27626545  0.42382247  0.70263882    -0.51600
C632        C  0.18475731  0.42345108  0.67320264     0.70400
O633        O  0.18220764  0.41608384  0.69919772    -0.46500
C634        C  0.22762946  0.49510128  0.70732129     0.75100
O635        O  0.20192906  0.43026621  0.75496225    -0.58300
O636        O  0.24954237  0.47920028  0.69778995    -0.48400
O637        O  0.24973113  0.44112182  0.75554532    -0.54800
C638        C  0.27054544  0.39703698  0.70395745     0.85300
O639        O  0.20870231  0.43795919  0.66777048    -0.56700
O640        O  0.20539616  0.48149356  0.71825564    -0.60000
N641        N  0.98751434  0.40428288  0.53374157    -0.36500
N642        N  0.03425227  0.40260558  0.98933554    -0.57000
N643        N  0.08171252  0.40349570  0.53381475    -0.36500
N644        N  0.03505053  0.40203023  0.57825658    -0.57000
C645        C  0.97069992  0.39632793  0.51056077     0.27100
C646        C  0.97101586  0.39701967  0.55721299     0.27100
C647        C  0.09894763  0.39778122  0.51021957     0.27100
C648        C  0.09930957  0.39635121  0.55699016     0.27100
C649        C  0.00860702  0.40958777  0.97375281     0.35700
C650        C  0.05896682  0.41117992  0.97385034     0.35700
C651        C  0.00989684  0.41004646  0.59384329     0.35700
C652        C  0.06029772  0.40878303  0.59408103     0.35700
C653        C  0.94343685  0.38343737  0.51941437    -0.21700
C654        C  0.94362320  0.38390318  0.54892214    -0.21700
C655        C  0.12771363  0.38632815  0.51845929    -0.21700
C656        C  0.12794115  0.38543887  0.54801408    -0.21700
C657        C  0.01697087  0.42260929  0.94821118    -0.22800
C658        C  0.04893151  0.42384402  0.94836836    -0.22800
C659        C  0.01914980  0.42194822  0.61970556    -0.22800
C660        C  0.05116122  0.42110907  0.61987913    -0.22800
C661        C  0.97797601  0.40284057  0.98196389    -0.18100
C662        C  0.97887638  0.40462079  0.58562272    -0.18100
C663        C  0.09135691  0.40289019  0.58574465    -0.18100
C664        C  0.09036146  0.40598450  0.98192458    -0.18100
H665        H  0.92499689  0.37518667  0.50600225     0.14800
H666        H  0.92536877  0.37607695  0.56270188     0.14800
H667        H  0.14689762  0.38014700  0.50464609     0.14800
H668        H  0.14734312  0.37853726  0.56139354     0.14800
H669        H  0.00166306  0.43050033  0.93133600     0.13000
H670        H  0.06310670  0.43291618  0.93157847     0.13000
H671        H  0.00440647  0.43026056  0.63668694     0.13000
H672        H  0.06596062  0.42880474  0.63697384     0.13000
H673        H  0.00694743  0.41747988  0.53357644     0.26300
H674        H  0.06107010  0.41564533  0.53411732     0.26300
N675        N  0.98358414  0.09837846  0.53431886    -0.36500
N676        N  0.03196298  0.10029941  0.57760172    -0.57000
N677        N  0.07884056  0.10149769  0.53379745    -0.36500
N678        N  0.03072288  0.09815120  0.99051076    -0.57000
C679        C  0.96806971  0.08972825  0.55789391     0.27100
C680        C  0.96740597  0.08918347  0.51125035     0.27100
C681        C  0.09594193  0.09442283  0.55723445     0.27100
C682        C  0.09514229  0.09240793  0.51068681     0.27100
C683        C  0.00655256  0.10561604  0.59381179     0.35700
C684        C  0.05680185  0.10805279  0.59346982     0.35700
C685        C  0.00523215  0.10307145  0.97417491     0.35700
C686        C  0.05544406  0.10387267  0.97386708     0.35700
C687        C  0.94166580  0.07486758  0.54971428    -0.21700
C688        C  0.94120518  0.07460086  0.52019786    -0.21700
C689        C  0.12335071  0.08050235  0.54895037    -0.21700
C690        C  0.12286636  0.07927859  0.51946976    -0.21700
C691        C  0.01518023  0.11735084  0.61993637    -0.22800
C692        C  0.04711608  0.11891194  0.61971767    -0.22800
C693        C  0.01370188  0.11249143  0.94711886    -0.22800
C694        C  0.04567990  0.11296078  0.94690693    -0.22800
C695        C  0.97634610  0.09662552  0.58640663    -0.18100
C696        C  0.97504276  0.09523004  0.98240696    -0.18100
C697        C  0.08644354  0.09772492  0.98201514    -0.18100
C698        C  0.08793535  0.10188430  0.58564827    -0.18100
H699        H  0.92441875  0.06536028  0.56354293     0.14800
H700        H  0.92357795  0.06484834  0.50686551     0.14800
H701        H  0.14187149  0.07230359  0.56268629     0.14800
H702        H  0.14095847  0.07003016  0.50601900     0.14800
H703        H  0.00011744  0.12327673  0.63761071     0.13000
H704        H  0.06158014  0.12630577  0.63718867     0.13000
H705        H  0.99848688  0.11740854  0.92914906     0.13000
H706        H  0.06008072  0.11844286  0.92877054     0.13000
H707        H  0.00227702  0.11247507  0.53395950     0.26300
H708        H  0.05896899  0.11481435  0.53344617     0.26300
In709      In  0.72759909  0.17206292  0.85768429     1.36900
C710        C  0.72563034  0.16870695  0.80113915     0.77700
O711        O  0.70521528  0.21532217  0.84907662    -0.60700
O712        O  0.74806284  0.21465508  0.87215898    -0.51600
C713        C  0.68628802  0.16106311  0.89832041     0.70400
O714        O  0.68198962  0.15422804  0.87236366    -0.46500
C715        C  0.77174676  0.13124803  0.86447940     0.75100
O716        O  0.70268695  0.16145061  0.81629875    -0.58300
O717        O  0.77758349  0.15804738  0.86526857    -0.48400
O718        O  0.74901441  0.17714662  0.81491870    -0.54800
C719        C  0.72623530  0.22975198  0.86106321     0.85300
O720        O  0.71213951  0.17272049  0.90333714    -0.56700
O721        O  0.74327793  0.12547627  0.86233613    -0.60000
In722      In  0.72453082  0.31923233  0.85573880     1.36900
C723        C  0.72383174  0.32058335  0.79891446     0.77700
O724        O  0.74003873  0.36549734  0.85853240    -0.60700
O725        O  0.77380311  0.33186455  0.86549068    -0.51600
C726        C  0.68350616  0.33409633  0.89587516     0.70400
O727        O  0.67984716  0.34120928  0.86986584    -0.46500
C728        C  0.72539248  0.26167415  0.86080407     0.75100
O729        O  0.69971585  0.32682363  0.81329896    -0.58300
O730        O  0.74665820  0.27709269  0.87129967    -0.48400
O731        O  0.74760243  0.31411736  0.81356560    -0.54800
C732        C  0.76819322  0.35879363  0.86310277     0.85300
O733        O  0.70803826  0.31948585  0.90101972    -0.56700
O734        O  0.70344274  0.27576335  0.84890339    -0.60000
In735      In  0.33620310  0.18669803  0.86104506     1.36900
C736        C  0.33855380  0.18361032  0.80414795     0.77700
O737        O  0.32120359  0.14055066  0.86497187    -0.60700
O738        O  0.28663198  0.17380517  0.86969425    -0.51600
C739        C  0.37866578  0.17390153  0.90102409     0.70400
O740        O  0.38232623  0.16780169  0.87484170    -0.46500
C741        C  0.33643854  0.24426574  0.86378078     0.75100
O742        O  0.36109144  0.17517951  0.81974068    -0.58300
O743        O  0.31510269  0.22984080  0.87547333    -0.48400
O744        O  0.31506568  0.19283875  0.81767443    -0.54800
C745        C  0.29279414  0.14691446  0.86806355     0.85300
O746        O  0.35297741  0.18633564  0.90674074    -0.56700
O747        O  0.35757153  0.22922432  0.85205651    -0.60000
In748      In  0.33887090  0.33341069  0.85704251     1.36900
C749        C  0.34015092  0.33675666  0.80010382     0.77700
O750        O  0.35836617  0.28902936  0.84960940    -0.60700
O751        O  0.31613762  0.29251012  0.87322448    -0.51600
C752        C  0.38220295  0.34319240  0.89611623     0.70400
O753        O  0.38478582  0.35191209  0.87054225    -0.46500
C754        C  0.29620278  0.37431985  0.86694386     0.75100
O755        O  0.36345408  0.34328414  0.81521723    -0.58300
O756        O  0.28990800  0.34766138  0.86697865    -0.48400
O757        O  0.31665672  0.32916066  0.81409328    -0.54800
C758        C  0.33691683  0.27608078  0.86252199     0.85300
O759        O  0.35730363  0.33017815  0.90143697    -0.56700
O760        O  0.32456049  0.37991009  0.86384412    -0.60000
In761      In  0.33861986  0.18598635  0.71555751     1.36900
C762        C  0.33920111  0.18363520  0.77267952     0.77700
O763        O  0.35935305  0.22943729  0.72291444    -0.60700
O764        O  0.31622748  0.22823854  0.70036546    -0.51600
C765        C  0.38182682  0.17436082  0.67580652     0.70400
O766        O  0.38532614  0.16728611  0.70184484    -0.46500
C767        C  0.29516023  0.14616621  0.70690589     0.75100
O768        O  0.36221317  0.17495693  0.75797772    -0.58300
O769        O  0.28957456  0.17306178  0.70423936    -0.48400
O770        O  0.31638338  0.19309271  0.75821970    -0.54800
C771        C  0.33764926  0.24357485  0.71071774     0.85300
O772        O  0.35604976  0.18675503  0.67030501    -0.56700
O773        O  0.32319142  0.13965807  0.71227961    -0.60000
In774      In  0.33790036  0.33309702  0.71187178     1.36900
C775        C  0.33991779  0.33674218  0.76867688     0.77700
O776        O  0.32320999  0.37993371  0.70733420    -0.60700
O777        O  0.28883348  0.34766254  0.70203081    -0.51600
C778        C  0.37950810  0.34156234  0.67092271     0.70400
O779        O  0.38421047  0.34869954  0.69672568    -0.46500
C780        C  0.33753834  0.27545792  0.70970313     0.75100
O781        O  0.36234660  0.34494236  0.75334582    -0.58300
O782        O  0.31546230  0.29077863  0.69934691    -0.48400
O783        O  0.31685544  0.32752514  0.75493180    -0.54800
C784        C  0.29488116  0.37436182  0.70360415     0.85300
O785        O  0.35302626  0.33112126  0.66607541    -0.56700
O786        O  0.35968705  0.28964268  0.72014638    -0.60000
In787      In  0.72767792  0.17066267  0.71321743     1.36900
C788        C  0.72572175  0.16831802  0.76984663     0.77700
O789        O  0.74312151  0.12405558  0.70869346    -0.60700
O790        O  0.77692678  0.15683818  0.70375810    -0.51600
C791        C  0.68428161  0.16031318  0.67434914     0.70400
O792        O  0.68115033  0.15311716  0.70030710    -0.46500
C793        C  0.72916954  0.22800988  0.70807295     0.75100
O794        O  0.70267212  0.16122259  0.75468184    -0.58300
O795        O  0.74999672  0.21183335  0.69709343    -0.48400
O796        O  0.74934200  0.17591192  0.75604398    -0.54800
C797        C  0.77132152  0.13006810  0.70506674     0.85300
O798        O  0.70990799  0.17186944  0.66851577    -0.56700
O799        O  0.70782795  0.21479780  0.72081017    -0.60000
In800      In  0.72897792  0.31734627  0.71090808     1.36900
C801        C  0.72495552  0.32022158  0.76757251     0.77700
O802        O  0.70794691  0.27449338  0.71898642    -0.60700
O803        O  0.75091854  0.27458735  0.69640040    -0.51600
C804        C  0.68656460  0.33071079  0.67136688     0.70400
O805        O  0.68416330  0.33874648  0.69713540    -0.46500
C806        C  0.77251268  0.35700138  0.70306761     0.75100
O807        O  0.70195510  0.32630904  0.75160762    -0.58300
O808        O  0.77863755  0.33007408  0.70193227    -0.48400
O809        O  0.74959391  0.31324854  0.75454295    -0.54800
C810        C  0.72944536  0.25981691  0.70739420     0.85300
O811        O  0.71106574  0.31623146  0.66584906    -0.56700
O812        O  0.74417289  0.36339233  0.70654240    -0.60000
N813        N  0.48584202  0.15387880  0.53605013    -0.36500
N814        N  0.53238709  0.15302350  0.58005537    -0.57000
N815        N  0.57996467  0.14924227  0.53563180    -0.36500
N816        N  0.53321200  0.14712034  0.99135132    -0.57000
C817        C  0.46842138  0.14910157  0.55968777     0.27100
C818        C  0.46904881  0.14538196  0.51309573     0.27100
C819        C  0.59649037  0.14218692  0.55941918     0.27100
C820        C  0.59713092  0.14083470  0.51273652     0.27100
C821        C  0.50773490  0.16256363  0.59554307     0.35700
C822        C  0.55804066  0.15927074  0.59544185     0.35700
C823        C  0.50798079  0.15555402  0.97585340     0.35700
C824        C  0.55844085  0.15400478  0.97561370     0.35700
C825        C  0.44045754  0.13688373  0.55171335    -0.21700
C826        C  0.44086578  0.13449120  0.52226408    -0.21700
C827        C  0.62429675  0.12864796  0.55156844    -0.21700
C828        C  0.62474610  0.12789531  0.52205131    -0.21700
C829        C  0.51776350  0.17512579  0.62083664    -0.22800
C830        C  0.54970784  0.17298178  0.62080464    -0.22800
C831        C  0.51721951  0.16785275  0.95018150    -0.22800
C832        C  0.54921501  0.16682958  0.95001190    -0.22800
C833        C  0.47642471  0.15780224  0.58782628    -0.18100
C834        C  0.47683011  0.15119421  0.98440325    -0.18100
C835        C  0.58953300  0.14769168  0.98392414    -0.18100
C836        C  0.58859661  0.15082887  0.58761689    -0.18100
H837        H  0.42145765  0.13097526  0.56559653     0.14800
H838        H  0.42211778  0.12658527  0.50900398     0.14800
H839        H  0.64278901  0.12098816  0.56563103     0.14800
H840        H  0.64355120  0.11943264  0.50894179     0.14800
H841        H  0.50359942  0.18459204  0.63765680     0.13000
H842        H  0.56499545  0.18050922  0.63760531     0.13000
H843        H  0.50250125  0.17691273  0.93343334     0.13000
H844        H  0.56394528  0.17488426  0.93311400     0.13000
H845        H  0.50596087  0.16613091  0.53519304     0.26300
H846        H  0.56025913  0.16271705  0.53497512     0.26300
N847        N  0.48654454  0.35241701  0.53397498    -0.36500
N848        N  0.53326723  0.35081288  0.57876465    -0.57000
N849        N  0.58070862  0.35324432  0.53483763    -0.36500
N850        N  0.53432693  0.35858658  0.98995423    -0.57000
C851        C  0.46892647  0.35739394  0.55751325     0.27100
C852        C  0.46947706  0.36098750  0.51096842     0.27100
C853        C  0.59743887  0.35856866  0.55877307     0.27100
C854        C  0.59808051  0.36145491  0.51223269     0.27100
C855        C  0.50815009  0.34307439  0.59412240     0.35700
C856        C  0.55855013  0.34324149  0.59454144     0.35700
C857        C  0.50935855  0.35360099  0.97311713     0.35700
C858        C  0.55968888  0.35293299  0.97369918     0.35700
C859        C  0.44043446  0.36946075  0.54934594    -0.21700
C860        C  0.44074484  0.37161495  0.51994595    -0.21700
C861        C  0.62552075  0.37088887  0.55131813    -0.21700
C862        C  0.62599292  0.37254540  0.52186076    -0.21700
C863        C  0.51746347  0.33053133  0.61985612    -0.22800
C864        C  0.54948430  0.33059672  0.62011026    -0.22800
C865        C  0.51885747  0.34520636  0.94595971    -0.22800
C866        C  0.55077250  0.34471212  0.94634294    -0.22800
C867        C  0.47706665  0.34925560  0.58586320    -0.18100
C868        C  0.47813975  0.35746905  0.98179808    -0.18100
C869        C  0.59070283  0.35617063  0.98312089    -0.18100
C870        C  0.58947888  0.34935897  0.58667085    -0.18100
H871        H  0.42120015  0.37564926  0.56309272     0.14800
H872        H  0.42180170  0.37968703  0.50662396     0.14800
H873        H  0.64419703  0.37703333  0.56558333     0.14800
H874        H  0.64502621  0.38025595  0.50894008     0.14800
H875        H  0.50274394  0.32240384  0.63673481     0.13000
H876        H  0.56432295  0.32247931  0.63723152     0.13000
H877        H  0.50437319  0.33971662  0.92780915     0.13000
H878        H  0.56558689  0.33873607  0.92852447     0.13000
H879        H  0.50729747  0.34037519  0.53330092     0.26300
H880        H  0.56081718  0.34066287  0.53375587     0.26300
C881        C  0.66232895  0.33691216  0.64948587    -0.05300
C882        C  0.66272118  0.32109642  0.62377641    -0.32700
C883        C  0.63920762  0.32507211  0.60327683     0.36500
C884        C  0.61487203  0.34532639  0.60814296    -0.05700
C885        C  0.61477631  0.36170031  0.63348132    -0.32600
C886        C  0.63812272  0.35747601  0.65420376     0.36400
H887        H  0.68092422  0.30502912  0.61978247     0.16800
O888        O  0.63942224  0.30821351  0.57903437    -0.60100
H889        H  0.59636870  0.37761874  0.63727823     0.16800
O890        O  0.63734316  0.37392357  0.67869180    -0.60200
H891        H  0.62191797  0.36450328  0.69126227     0.43800
H892        H  0.65600032  0.31621047  0.56673795     0.43700
C893        C  0.65989521  0.15654456  0.65234684    -0.05300
C894        C  0.66224169  0.17208931  0.62655827    -0.32700
C895        C  0.63927632  0.17028824  0.60549098     0.36500
C896        C  0.61365211  0.15217297  0.60960388    -0.05700
C897        C  0.61136146  0.13624172  0.63519555    -0.32600
C898        C  0.63414059  0.13847342  0.65661857     0.36400
H899        H  0.68166266  0.18630754  0.62290156     0.16800
O900        O  0.64194884  0.18657306  0.58100587    -0.60100
H901        H  0.59165602  0.12230770  0.63864966     0.16800
O902        O  0.63082661  0.12313773  0.68161282    -0.60200
H903        H  0.64035490  0.10376640  0.67777438     0.43800
H904        H  0.62880262  0.20417251  0.58429144     0.43700
C905        C  0.40349899  0.34440766  0.64842651    -0.05300
C906        C  0.42832897  0.36341025  0.65259092    -0.32700
C907        C  0.45213895  0.36542869  0.63230167     0.36500
C908        C  0.45190061  0.34768609  0.60771865    -0.05700
C909        C  0.42700917  0.32882257  0.60344248    -0.32600
C910        C  0.40273035  0.32738160  0.62330624     0.36400
H911        H  0.42922524  0.37686546  0.67159926     0.16800
O912        O  0.47564621  0.38469666  0.63677507    -0.60100
H913        H  0.42644072  0.31514271  0.58456966     0.16800
O914        O  0.37910356  0.30831488  0.61852041    -0.60200
H915        H  0.36425000  0.31881428  0.60570215     0.43800
H916        H  0.47023022  0.40178990  0.62467435     0.43700
C917        C  0.40588795  0.16922103  0.65339273    -0.05300
C918        C  0.40330626  0.18401371  0.62705880    -0.32700
C919        C  0.42594461  0.18049038  0.60570841     0.36500
C920        C  0.45151154  0.16133600  0.61003566    -0.05700
C921        C  0.45381678  0.14610270  0.63613121    -0.32600
C922        C  0.43159541  0.15020730  0.65781676     0.36400
H923        H  0.38393222  0.19890553  0.62316170     0.16800
O924        O  0.42299516  0.19613125  0.58077109    -0.60100
H925        H  0.47319386  0.13115715  0.63982279     0.16800
O926        O  0.43496061  0.13502880  0.68297475    -0.60200
H927        H  0.44834271  0.14721897  0.69525543     0.43800
H928        H  0.43577006  0.21361529  0.58370514     0.43700
C929        C  0.45298336  0.35511729  0.96001648    -0.05300
C930        C  0.43164403  0.33262073  0.96267312    -0.32700
C931        C  0.40848455  0.32870054  0.94208866     0.36500
C932        C  0.40639908  0.34740125  0.91816797    -0.05700
C933        C  0.42773546  0.37000339  0.91547143    -0.32600
C934        C  0.45068063  0.37418086  0.93642789     0.36400
H935        H  0.43328747  0.31772587  0.98064871     0.16800
O936        O  0.38838750  0.30611637  0.94534259    -0.60100
H937        H  0.42639826  0.38464105  0.89728829     0.16800
O938        O  0.47100600  0.39662478  0.93352657    -0.60200
H939        H  0.46020451  0.41370985  0.94210179     0.43800
H940        H  0.39770496  0.28983442  0.93420101     0.43700
C941        C  0.45102658  0.15562951  0.96317354    -0.05300
C942        C  0.42686383  0.17556168  0.96947379    -0.32700
C943        C  0.40263616  0.18097095  0.94996458     0.36500
C944        C  0.40277738  0.16717337  0.92300073    -0.05700
C945        C  0.42674004  0.14698673  0.91677373    -0.32600
C946        C  0.45052297  0.14088653  0.93671343     0.36400
H947        H  0.42689075  0.18719464  0.98965222     0.16800
O948        O  0.37959435  0.20060831  0.95714653    -0.60100
H949        H  0.42696666  0.13569272  0.89641650     0.16800
O950        O  0.47267550  0.11995611  0.93056502    -0.60200
H951        H  0.48443949  0.12747135  0.91395515     0.43800
H952        H  0.36414371  0.18924377  0.96797726     0.43700
C953        C  0.61645133  0.35258749  0.96203273    -0.05300
C954        C  0.61764925  0.37050053  0.93767832    -0.32700
C955        C  0.63923813  0.36479769  0.91583150     0.36500
C956        C  0.66084983  0.34153546  0.91867405    -0.05700
C957        C  0.66050560  0.32452965  0.94368174    -0.32600
C958        C  0.63839865  0.32970627  0.96509510     0.36400
H959        H  0.60100716  0.38829591  0.93515113     0.16800
O960        O  0.63914442  0.38221803  0.89196815    -0.60100
H961        H  0.67674822  0.30642095  0.94623276     0.16800
O962        O  0.63713786  0.31116735  0.98810552    -0.60200
H963        H  0.65448917  0.31686061  0.00087182     0.43800
H964        H  0.62286898  0.37422307  0.87923843     0.43700
C965        C  0.66263162  0.15639181  0.92090026    -0.05300
C966        C  0.63721976  0.13839303  0.91541817    -0.32700
C967        C  0.61394091  0.13454048  0.93599459     0.36500
C968        C  0.61514123  0.14958016  0.96230774    -0.05700
C969        C  0.64082138  0.16720467  0.96793650    -0.32600
C970        C  0.66450576  0.17047512  0.94769513     0.36400
H971        H  0.63541213  0.12714137  0.89511747     0.16800
O972        O  0.58990406  0.11627958  0.92999870    -0.60100
H973        H  0.64229185  0.17887379  0.98803616     0.16800
O974        O  0.68913084  0.18785115  0.95427399    -0.60200
H975        H  0.68291462  0.20750914  0.94738064     0.43800
H976        H  0.59516947  0.09793312  0.94021249     0.43700
C977        C  0.11671831  0.40624162  0.60740194    -0.05300
C978        C  0.11759700  0.38909442  0.63237955    -0.32700
C979        C  0.13981758  0.39402507  0.65394993     0.36500
C980        C  0.16156550  0.41643411  0.65070215    -0.05700
C981        C  0.16107239  0.43291130  0.62534826    -0.32600
C982        C  0.13883278  0.42815109  0.60401488     0.36400
H983        H  0.10070324  0.37215629  0.63529853     0.16800
O984        O  0.13991462  0.37695375  0.67806772    -0.60100
H985        H  0.17751929  0.45020810  0.62232056     0.16800
O986        O  0.13844690  0.44556707  0.58013720    -0.60200
H987        H  0.12227914  0.46070643  0.58395325     0.43800
H988        H  0.15432824  0.36049698  0.67369053     0.43700
C989        C  0.15890424  0.09672021  0.65115544    -0.05300
C990        C  0.16287136  0.11487323  0.62732784    -0.32700
C991        C  0.13965182  0.11731920  0.60622620     0.36500
C992        C  0.11247418  0.10069671  0.60831544    -0.05700
C993        C  0.10890801  0.08213078  0.63191977    -0.32600
C994        C  0.13174062  0.08022427  0.65331416     0.36400
H995        H  0.18377820  0.12753078  0.62534215     0.16800
O996        O  0.14379185  0.13586020  0.58357554    -0.60100
H997        H  0.08841778  0.06885294  0.63361634     0.16800
O998        O  0.12770049  0.06155404  0.67588303    -0.60200
H999        H  0.13505702  0.04230301  0.66886626     0.43800
H1000       H  0.13221963  0.15391602  0.58877678     0.43700
C1001       C  0.90600496  0.40853921  0.64907666    -0.05300
C1002       C  0.90391042  0.42566604  0.62416057    -0.32700
C1003       C  0.92761358  0.42487540  0.60366392     0.36500
C1004       C  0.95372004  0.40627930  0.60752112    -0.05700
C1005       C  0.95565233  0.38888147  0.63221669    -0.32600
C1006       C  0.93214098  0.38995688  0.65292514     0.36400
H1007       H  0.88415101  0.44025760  0.62083608     0.16800
O1008       O  0.92510299  0.44243086  0.57994964    -0.60100
H1009       H  0.97546158  0.37431199  0.63537488     0.16800
O1010       O  0.93494306  0.37265066  0.67676654    -0.60200
H1011       H  0.92429732  0.35441747  0.67168226     0.43800
H1012       H  0.93679701  0.46013155  0.58486957     0.43700
C1013       C  0.90697665  0.08503208  0.65162981    -0.05300
C1014       C  0.93564963  0.07010119  0.65348479    -0.32700
C1015       C  0.95835066  0.07363159  0.63238261     0.36500
C1016       C  0.95285720  0.09301933  0.60944578    -0.05700
C1017       C  0.92440018  0.10844571  0.60795640    -0.32600
C1018       C  0.90135208  0.10424459  0.62861400     0.36400
H1019       H  0.94004834  0.05485677  0.67081376     0.16800
O1020       O  0.98514514  0.05695963  0.63345615    -0.60100
H1021       H  0.91993153  0.12348716  0.59047346     0.16800
O1022       O  0.87379038  0.11962782  0.62659174    -0.60200
H1023       H  0.86051612  0.10807256  0.61363102     0.43800
H1024       H  0.99745414  0.06482797  0.64960861     0.43700
C1025       C  0.16269010  0.42121352  0.91975791    -0.05300
C1026       C  0.13900901  0.40145210  0.91372246    -0.32700
C1027       C  0.11575515  0.39573530  0.93388577     0.36500
C1028       C  0.11551462  0.41039701  0.96039968    -0.05700
C1029       C  0.13926634  0.43006221  0.96645132    -0.32600
C1030       C  0.16292048  0.43521250  0.94663381     0.36400
H1031       H  0.13867100  0.39008901  0.89340648     0.16800
O1032       O  0.09392956  0.37514002  0.92794739    -0.60100
H1033       H  0.13938574  0.44159532  0.98668387     0.16800
O1034       O  0.18558465  0.45464773  0.95350038    -0.60200
H1035       H  0.20178577  0.44307841  0.96382835     0.43800
H1036       H  0.08150653  0.38296802  0.91163343     0.43700
C1037       C  0.15757902  0.09406588  0.91774781    -0.05300
C1038       C  0.13303360  0.07440460  0.91678752    -0.32700
C1039       C  0.11001096  0.07496776  0.93791441     0.36500
C1040       C  0.11081660  0.09613302  0.95965466    -0.05700
C1041       C  0.13529138  0.11587414  0.96044915    -0.32600
C1042       C  0.15874748  0.11477375  0.93980620     0.36400
H1043       H  0.13224893  0.05805262  0.90012088     0.16800
O1044       O  0.08700559  0.05467985  0.93735440    -0.60100
H1045       H  0.13616504  0.13214130  0.97718551     0.16800
O1046       O  0.18253046  0.13420398  0.94118394    -0.60200
H1047       H  0.17627120  0.15023066  0.92804174     0.43800
H1048       H  0.09553429  0.03775923  0.44616455     0.43700
C1049       C  0.90352279  0.40693364  0.91936567    -0.05300
C1050       C  0.92939520  0.38835564  0.91501360    -0.32700
C1051       C  0.95355097  0.38653160  0.93528913     0.36500
C1052       C  0.95242998  0.40384215  0.96017245    -0.05700
C1053       C  0.92657930  0.42235719  0.96453248    -0.32600
C1054       C  0.90220702  0.42385237  0.94456566     0.36400
H1055       H  0.93091846  0.37518084  0.89583098     0.16800
O1056       O  0.97828695  0.36795065  0.93048539    -0.60100
H1057       H  0.92544782  0.43595397  0.98345777     0.16800
O1058       O  0.87797077  0.44303224  0.94928560    -0.60200
H1059       H  0.86301995  0.43225613  0.96125010     0.43800
H1060       H  0.97267780  0.34951015  0.94000360     0.43700
C1061       C  0.95126877  0.09071071  0.95984801    -0.05300
C1062       C  0.92450881  0.10858907  0.95898555    -0.32700
C1063       C  0.90153061  0.10423982  0.93819082     0.36500
C1064       C  0.90556609  0.08219598  0.91763575    -0.05700
C1065       C  0.93237778  0.06441407  0.91838348    -0.32600
C1066       C  0.95505670  0.06835816  0.93952614     0.36400
H1067       H  0.92147278  0.12588331  0.97451301     0.16800
O1068       O  0.87584725  0.12236050  0.93734480    -0.60100
H1069       H  0.93539892  0.04705190  0.90292034     0.16800
O1070       O  0.98028001  0.04967884  0.94090448    -0.60200
H1071       H  0.99448374  0.05608131  0.92552273     0.43800
H1072       H  0.86128780  0.11433163  0.95163724     0.43700
In1073     In  0.83920120  0.56718111  0.35604804     1.36900
C1074       C  0.84113662  0.57099683  0.29954181     0.77700
O1075       O  0.85980298  0.52288850  0.35011033    -0.60700
O1076       O  0.81555296  0.52572419  0.37018628    -0.51600
C1077       C  0.88205790  0.57771946  0.39527499     0.70400
O1078       O  0.88866170  0.57418751  0.36917307    -0.46500
C1079       C  0.79612680  0.60862086  0.36361140     0.75100
O1080       O  0.86207121  0.58202821  0.31495907    -0.58300
O1081       O  0.79050928  0.58197631  0.36710388    -0.48400
O1082       O  0.81954838  0.55904697  0.31306233    -0.54800
C1083       C  0.83723644  0.50954893  0.36064025     0.85300
O1084       O  0.85352187  0.57618434  0.40121824    -0.56700
O1085       O  0.82399507  0.61408021  0.35746551    -0.60000
In1086     In  0.83665834  0.92003569  0.35624217     1.36900
C1087       C  0.83948692  0.91739388  0.29944433     0.77700
O1088       O  0.82088083  0.87387732  0.35953898    -0.60700
O1089       O  0.78708087  0.90759140  0.36532195    -0.51600
C1090       C  0.87904510  0.90983721  0.39691987     0.70400
O1091       O  0.88322559  0.90230778  0.37114509    -0.46500
C1092       C  0.83657306  0.97764993  0.36032464     0.75100
O1093       O  0.86157469  0.90787984  0.31500605    -0.58300
O1094       O  0.81455787  0.96285250  0.37030669    -0.48400
O1095       O  0.81649553  0.92766205  0.31294175    -0.54800
C1096       C  0.79265590  0.88064589  0.36333467     0.85300
O1097       O  0.85253872  0.92094317  0.40188799    -0.56700
O1098       O  0.85825208  0.96296046  0.34894248    -0.60000
In1099     In  0.22673265  0.58419707  0.35797131     1.36900
C1100       C  0.22453170  0.58791696  0.30114937     0.77700
O1101       O  0.24046444  0.63073789  0.36296226    -0.60700
O1102       O  0.27543702  0.59773806  0.36816142    -0.51600
C1103       C  0.18237076  0.59222172  0.39625487     0.70400
O1104       O  0.17671912  0.59020867  0.36978674    -0.46500
C1105       C  0.22983751  0.52699519  0.36343719     0.75100
O1106       O  0.20454767  0.60087692  0.31655657    -0.58300
O1107       O  0.25173385  0.54264037  0.37241349    -0.48400
O1108       O  0.24531167  0.57412635  0.31482008    -0.54800
C1109       C  0.26885720  0.62458888  0.36715155     0.85300
O1110       O  0.21083631  0.59135488  0.40303978    -0.56700
O1111       O  0.20690227  0.54069972  0.35300884    -0.60000
In1112     In  0.22914784  0.93809760  0.35836294     1.33700
C1113       C  0.22630733  0.93564931  0.30125960     0.77700
O1114       O  0.20769876  0.98163513  0.35316157    -0.60700
O1115       O  0.25293223  0.97954333  0.37201918    -0.51600
C1116       C  0.18659838  0.92681339  0.39774127     0.70400
O1117       O  0.18356809  0.91953666  0.37178622    -0.46500
C1118       C  0.27194919  0.89704465  0.36726359     0.75100
O1119       O  0.20325356  0.92964188  0.31673993    -0.58300
O1120       O  0.27805538  0.92369937  0.36907047    -0.48400
O1121       O  0.25042283  0.94237064  0.31494257    -0.54800
C1122       C  0.23035607  0.99525055  0.36334372     0.85300
O1123       O  0.21170859  0.93945258  0.40344046    -0.56700
O1124       O  0.24372568  0.89149843  0.36299875    -0.60000
In1125     In  0.83970853  0.56710994  0.21166982     1.36900
C1126       C  0.84135413  0.57083177  0.26826041     0.77700
O1127       O  0.82383793  0.61358746  0.21008947    -0.60700
O1128       O  0.79046719  0.58096320  0.20160310    -0.51600
C1129       C  0.88264554  0.57908993  0.17298409     0.70400
O1130       O  0.88906289  0.57529743  0.19915437    -0.46500
C1131       C  0.83792053  0.50960012  0.20664880     0.75100
O1132       O  0.86204145  0.58236058  0.25304238    -0.58300
O1133       O  0.81624436  0.52575767  0.19687850    -0.48400
O1134       O  0.82037125  0.55814696  0.25452760    -0.54800
C1135       C  0.79583990  0.60765286  0.20492289     0.85300
O1136       O  0.85418587  0.57699764  0.16666629    -0.56700
O1137       O  0.86046593  0.52293630  0.21735841    -0.60000
In1138     In  0.83825763  0.92014959  0.21118242     1.36900
C1139       C  0.83983437  0.91740106  0.26804102     0.77700
O1140       O  0.85922673  0.96321442  0.21854599    -0.60700
O1141       O  0.81537829  0.96277191  0.19711423    -0.51600
C1142       C  0.88103779  0.91097272  0.17117794     0.70400
O1143       O  0.88519794  0.90366699  0.19706745    -0.46500
C1144       C  0.79616118  0.87924922  0.20308398     0.75100
O1145       O  0.86253666  0.90848337  0.25306898    -0.58300
O1146       O  0.78960047  0.90603561  0.20110200    -0.48400
O1147       O  0.81687829  0.92712525  0.25393912    -0.54800
C1148       C  0.83736630  0.97772895  0.20706703     0.85300
O1149       O  0.85444723  0.92179672  0.16572740    -0.56700
O1150       O  0.82457733  0.87334001  0.20721694    -0.60000
In1151     In  0.22675547  0.58457735  0.21288437     1.36900
C1152       C  0.22434974  0.58781683  0.26974166     0.77700
O1153       O  0.20565542  0.54131859  0.21852450    -0.60700
O1154       O  0.24955047  0.54227953  0.19765257    -0.51600
C1155       C  0.18333895  0.59438163  0.17333943     0.70400
O1156       O  0.17749442  0.59455463  0.19985810    -0.46500
C1157       C  0.27075402  0.62420515  0.20654649     0.75100
O1158       O  0.20430589  0.60082296  0.25423340    -0.58300
O1159       O  0.27668695  0.59722684  0.20629232    -0.48400
O1160       O  0.24490348  0.57381958  0.25617141    -0.54800
C1161       C  0.22765038  0.52704993  0.20725989     0.85300
O1162       O  0.21172097  0.59071456  0.16708214    -0.56700
O1163       O  0.24220223  0.63085160  0.20815927    -0.60000
In1164     In  0.22671371  0.93758743  0.21263216     1.36900
C1165       C  0.22569859  0.93551978  0.26978326     0.77700
O1166       O  0.24220862  0.89118182  0.20786646    -0.60700
O1167       O  0.27611332  0.92384217  0.20270549    -0.51600
C1168       C  0.18456111  0.92348744  0.17320483     0.70400
O1169       O  0.18204852  0.91608609  0.19919436    -0.46500
C1170       C  0.22749846  0.99513290  0.20720277     0.75100
O1171       O  0.20173351  0.93055257  0.25491349    -0.58300
O1172       O  0.24928155  0.97920629  0.19746479    -0.48400
O1173       O  0.24964746  0.94101785  0.25547604    -0.54800
C1174       C  0.27037464  0.89705486  0.20391807     0.85300
O1175       O  0.20847976  0.93802636  0.16776277    -0.56700
O1176       O  0.20538317  0.98155340  0.21836921    -0.60000
N1177       N  0.98732685  0.90417394  0.03382182    -0.36500
N1178       N  0.03434952  0.90276894  0.48927584    -0.57000
N1179       N  0.08152445  0.90376007  0.03384746    -0.36500
N1180       N  0.03476065  0.90230079  0.07830863    -0.57000
C1181       C  0.97057933  0.89608547  0.01065025     0.27100
C1182       C  0.97078524  0.89698913  0.05729983     0.27100
C1183       C  0.09883342  0.89802063  0.01029648     0.27100
C1184       C  0.09905785  0.89662750  0.05706421     0.27100
C1185       C  0.00874987  0.91001425  0.47374358     0.35700
C1186       C  0.05910559  0.91137748  0.47388817     0.35700
C1187       C  0.00958592  0.91021852  0.09391802     0.35700
C1188       C  0.05999428  0.90909257  0.09412800     0.35700
C1189       C  0.94331391  0.88320453  0.01951024    -0.21700
C1190       C  0.94344009  0.88378471  0.04901416    -0.21700
C1191       C  0.12757548  0.88658014  0.01860728    -0.21700
C1192       C  0.12770832  0.88569151  0.04815649    -0.21700
C1193       C  0.01717983  0.92327740  0.44834556    -0.22800
C1194       C  0.04914974  0.92435258  0.44852736    -0.22800
C1195       C  0.01881355  0.92212155  0.11978758    -0.22800
C1196       C  0.05082927  0.92136873  0.11994405    -0.22800
C1197       C  0.97811082  0.90322592  0.48186087    -0.18100
C1198       C  0.97858448  0.90467757  0.08570657    -0.18100
C1199       C  0.09106199  0.90320513  0.08580103    -0.18100
C1200       C  0.09045814  0.90589600  0.48189468    -0.18100
H1201       H  0.92491479  0.87487895  0.00609644     0.14800
H1202       H  0.92517611  0.87597115  0.06279032     0.14800
H1203       H  0.14678895  0.88036573  0.00484261     0.14800
H1204       H  0.14706794  0.87877550  0.06158068     0.14800
H1205       H  0.00191309  0.93140228  0.43154380     0.13000
H1206       H  0.06338882  0.93350488  0.43182623     0.13000
H1207       H  0.00405463  0.93035921  0.13679209     0.13000
H1208       H  0.06561160  0.92906387  0.13705148     0.13000
H1209       H  0.00673813  0.91739632  0.03361225     0.26300
H1210       H  0.06086929  0.91589490  0.03410280     0.26300
N1211       N  0.98345994  0.59865570  0.03427059    -0.36500
N1212       N  0.03177731  0.60072111  0.07762740    -0.57000
N1213       N  0.07872899  0.60181346  0.03386618    -0.36500
N1214       N  0.03076962  0.59805484  0.49054281    -0.57000
C1215       C  0.96789561  0.59001788  0.05782042     0.27100
C1216       C  0.96727243  0.58949059  0.01120079     0.27100
C1217       C  0.09587149  0.59497163  0.05735625     0.27100
C1218       C  0.09512393  0.59271837  0.01079984     0.27100
C1219       C  0.00632888  0.60579317  0.09386496     0.35700
C1220       C  0.05657828  0.60837636  0.09360081     0.35700
C1221       C  0.00524034  0.60309567  0.47429933     0.35700
C1222       C  0.05543943  0.60403676  0.47392834     0.35700
C1223       C  0.94146114  0.57521794  0.04961448    -0.21700
C1224       C  0.94101866  0.57497516  0.02011549    -0.21700
C1225       C  0.12341019  0.58123740  0.04913563    -0.21700
C1226       C  0.12296184  0.57987114  0.01966901    -0.21700
C1227       C  0.01489030  0.61726036  0.12012258    -0.22800
C1228       C  0.04681274  0.61893576  0.11994719    -0.22800
C1229       C  0.01363725  0.61288428  0.44734880    -0.22800
C1230       C  0.04560872  0.61342722  0.44709259    -0.22800
C1231       C  0.97614337  0.59682168  0.08635197    -0.18100
C1232       C  0.97509966  0.59503604  0.48247517    -0.18100
C1233       C  0.08644836  0.59780040  0.48195628    -0.18100
C1234       C  0.08776120  0.60236220  0.08578394    -0.18100
H1235       H  0.92418169  0.56572223  0.06341572     0.14800
H1236       H  0.92337968  0.56525735  0.00677000     0.14800
H1237       H  0.14198563  0.57321246  0.06290466     0.14800
H1238       H  0.14114459  0.57068168  0.00628293     0.14800
H1239       H  0.99979552  0.62293448  0.13785116     0.13000
H1240       H  0.06121519  0.62618920  0.13752020     0.13000
H1241       H  0.99838167  0.61799048  0.42945724     0.13000
H1242       H  0.05996241  0.61914725  0.42899871     0.13000
H1243       H  0.00219705  0.61270021  0.03392036     0.26300
H1244       H  0.05872617  0.61494769  0.03344023     0.26300
In1245     In  0.72751952  0.67215555  0.35774160     1.36900
C1246       C  0.72549270  0.66892835  0.30117133     0.77700
O1247       O  0.70509742  0.71543150  0.34934968    -0.60700
O1248       O  0.74797560  0.71472596  0.37237792    -0.51600
C1249       C  0.68626989  0.66087711  0.39835775     0.70400
O1250       O  0.68192037  0.65420778  0.37236646    -0.46500
C1251       C  0.77171627  0.63136737  0.36440586     0.75100
O1252       O  0.70263442  0.66148143  0.31634563    -0.58300
O1253       O  0.77753366  0.65816945  0.36518886    -0.48400
O1254       O  0.74880402  0.67754311  0.31494465    -0.54800
C1255       C  0.72613221  0.72984487  0.36133440     0.85300
O1256       O  0.71211131  0.67254259  0.40340126    -0.56700
O1257       O  0.74325178  0.62557596  0.36231457    -0.60000
In1258     In  0.72440025  0.81934469  0.35590893     1.36900
C1259       C  0.72353850  0.82075174  0.29908451     0.77700
O1260       O  0.73988736  0.86560936  0.35887333    -0.60700
O1261       O  0.77374578  0.83195386  0.36531142    -0.51600
C1262       C  0.68347826  0.83428122  0.39609174     0.70400
O1263       O  0.67972053  0.84128837  0.37006567    -0.46500
C1264       C  0.72528956  0.76177427  0.36107560     0.75100
O1265       O  0.69945265  0.82697548  0.31351828    -0.58300
O1266       O  0.74650585  0.77721784  0.37162175    -0.48400
O1267       O  0.74734274  0.81428672  0.31368747    -0.54800
C1268       C  0.76808879  0.85889495  0.36316776     0.85300
O1269       O  0.70805442  0.81973246  0.40123006    -0.56700
O1270       O  0.70338735  0.77584535  0.34908532    -0.60000
In1271     In  0.33604256  0.68680810  0.36117082     1.36900
C1272       C  0.33851826  0.68370219  0.30431512     0.77700
O1273       O  0.32121486  0.64060312  0.36500388    -0.60700
O1274       O  0.28653813  0.67375091  0.36984160    -0.51600
C1275       C  0.37850559  0.67408684  0.40111929     0.70400
O1276       O  0.38221549  0.66812334  0.37491636    -0.46500
C1277       C  0.33620288  0.74436765  0.36375121     0.75100
O1278       O  0.36106236  0.67536401  0.31994203    -0.58300
O1279       O  0.31481963  0.72996935  0.37540450    -0.48400
O1280       O  0.31494510  0.69281580  0.31779105    -0.54800
C1281       C  0.29278962  0.64687937  0.36813602     0.85300
O1282       O  0.35275254  0.68637916  0.40689165    -0.56700
O1283       O  0.35740485  0.72930837  0.35216354    -0.60000
In1284     In  0.33879319  0.83347338  0.35694968     1.36900
C1285       C  0.34020875  0.83687793  0.29997084     0.77700
O1286       O  0.35822694  0.78907452  0.34957415    -0.60700
O1287       O  0.31587959  0.79262664  0.37300217    -0.51600
C1288       C  0.38204180  0.84308432  0.39620818     0.70400
O1289       O  0.38479473  0.85171557  0.37062008    -0.46500
C1290       C  0.29605616  0.87430307  0.36690543     0.75100
O1291       O  0.36344967  0.84348609  0.31513293    -0.58300
O1292       O  0.28981925  0.84763458  0.36699852    -0.48400
O1293       O  0.31672895  0.82919566  0.31393170    -0.54800
C1294       C  0.33669607  0.77616879  0.36241290     0.85300
O1295       O  0.35702044  0.83024292  0.40144344    -0.56700
O1296       O  0.32438570  0.87994520  0.36368010    -0.60000
In1297     In  0.33870333  0.68602229  0.21576332     1.36900
C1298       C  0.33924225  0.68374457  0.27286126     0.77700
O1299       O  0.35933540  0.72953162  0.22314858    -0.60700
O1300       O  0.31637176  0.72822735  0.20035289    -0.51600
C1301       C  0.38191755  0.67435821  0.17602764     0.70400
O1302       O  0.38536265  0.66720280  0.20205200    -0.46500
C1303       C  0.29523117  0.64615649  0.20725634     0.75100
O1304       O  0.36234936  0.67521398  0.25820193    -0.58300
O1305       O  0.28962746  0.67305451  0.20464009    -0.48400
O1306       O  0.31638353  0.69305983  0.25837268    -0.54800
C1307       C  0.33770740  0.74361742  0.21077992     0.85300
O1308       O  0.35617667  0.68682150  0.17052992    -0.56700
O1309       O  0.32329109  0.63965680  0.21251801    -0.60000
In1310     In  0.33783611  0.83316438  0.21169579     1.36900
C1311       C  0.33998941  0.83686048  0.26852532     0.77700
O1312       O  0.32305403  0.87998033  0.20723861    -0.60700
O1313       O  0.28870523  0.84767551  0.20197239    -0.51600
C1314       C  0.37922233  0.84163116  0.17053713     0.70400
O1315       O  0.38399679  0.84885576  0.19630595    -0.46500
C1316       C  0.33757347  0.77550485  0.20965744     0.75100
O1317       O  0.36244862  0.84494434  0.25316054    -0.58300
O1318       O  0.31546831  0.79077555  0.19928084    -0.48400
O1319       O  0.31686814  0.82774183  0.25479760    -0.54800
C1320       C  0.29472342  0.87438345  0.20354988     0.85300
O1321       O  0.35274536  0.83112961  0.16580495    -0.56700
O1322       O  0.35971556  0.78974746  0.22003507    -0.60000
In1323     In  0.72759226  0.67064159  0.21322751     1.36900
C1324       C  0.72559161  0.66849100  0.26987257     0.77700
O1325       O  0.74304280  0.62402498  0.20897215    -0.60700
O1326       O  0.77682150  0.65677502  0.20366115    -0.51600
C1327       C  0.68442786  0.65999899  0.17424501     0.70400
O1328       O  0.68121384  0.65290323  0.20022025    -0.46500
C1329       C  0.72884745  0.72799475  0.20802602     0.75100
O1330       O  0.70256602  0.66131610  0.25471358    -0.58300
O1331       O  0.74987602  0.71188596  0.19726908    -0.48400
O1332       O  0.74921055  0.67607147  0.25605757    -0.54800
C1333       C  0.77121548  0.63000946  0.20513394     0.85300
O1334       O  0.71002379  0.67163372  0.16844623    -0.56700
O1335       O  0.70739508  0.71470963  0.22052822    -0.60000
In1336     In  0.72861615  0.81733971  0.21108437     1.36900
C1337       C  0.72461208  0.82036680  0.26774181     0.77700
O1338       O  0.70757684  0.77444665  0.21905981    -0.60700
O1339       O  0.75051857  0.77461739  0.19644409    -0.51600
C1340       C  0.68625229  0.83069293  0.17154216     0.70400
O1341       O  0.68366664  0.83851188  0.19736443    -0.46500
C1342       C  0.77220657  0.85691801  0.20322010     0.75100
O1343       O  0.70163683  0.82654988  0.25177941    -0.58300
O1344       O  0.77836827  0.82998395  0.20254885    -0.48400
O1345       O  0.74919831  0.81324666  0.25471048    -0.54800
C1346       C  0.72906766  0.75980706  0.20741186     0.85300
O1347       O  0.71090788  0.81645788  0.16598888    -0.56700
O1348       O  0.74380906  0.86334443  0.20622128    -0.60000
N1349       N  0.48585529  0.65382251  0.03624009    -0.36500
N1350       N  0.53244755  0.65283705  0.08019454    -0.57000
N1351       N  0.57998010  0.64922097  0.03568014    -0.36500
N1352       N  0.53320435  0.64701032  0.49125079    -0.57000
C1353       C  0.46845355  0.64909214  0.05990011     0.27100
C1354       C  0.46900733  0.64537833  0.01329616     0.27100
C1355       C  0.59647990  0.64193163  0.05941556     0.27100
C1356       C  0.59711481  0.64093613  0.01272063     0.27100
C1357       C  0.50785752  0.66247749  0.09570446     0.35700
C1358       C  0.55814927  0.65897174  0.09555574     0.35700
C1359       C  0.50802637  0.65546416  0.47568964     0.35700
C1360       C  0.55848201  0.65368202  0.47549044     0.35700
C1361       C  0.44044308  0.63694567  0.05195238    -0.21700
C1362       C  0.44080394  0.63455803  0.02249857    -0.21700
C1363       C  0.62423788  0.62836737  0.05146668    -0.21700
C1364       C  0.62468522  0.62784154  0.02194065    -0.21700
C1365       C  0.51798023  0.67500949  0.12098429    -0.22800
C1366       C  0.54991967  0.67270769  0.12093211    -0.22800
C1367       C  0.51735189  0.66756633  0.44995177    -0.22800
C1368       C  0.54934533  0.66636319  0.44979370    -0.22800
C1369       C  0.47651815  0.65779200  0.08803065    -0.18100
C1370       C  0.47685005  0.65125259  0.48424377    -0.18100
C1371       C  0.58954244  0.64738158  0.48390000    -0.18100
C1372       C  0.58865243  0.65044604  0.08766326    -0.18100
H1373       H  0.42143921  0.63109157  0.06585452     0.14800
H1374       H  0.42200810  0.62671163  0.00926084     0.14800
H1375       H  0.64270372  0.62055063  0.06547804     0.14800
H1376       H  0.64345242  0.61940849  0.00876867     0.14800
H1377       H  0.50388004  0.68454002  0.13781519     0.13000
H1378       H  0.56527376  0.68015659  0.13771734     0.13000
H1379       H  0.50269816  0.67660252  0.43314478     0.13000
H1380       H  0.56413489  0.67423606  0.43285439     0.13000
H1381       H  0.50600921  0.66602194  0.03536987     0.26300
H1382       H  0.56032126  0.66276199  0.03512232     0.26300
N1383       N  0.48652942  0.85262824  0.03371743    -0.36500
N1384       N  0.53314337  0.85047027  0.07855176    -0.57000
N1385       N  0.58070947  0.85300192  0.03471660    -0.36500
N1386       N  0.53423059  0.85819544  0.49013250    -0.57000
C1387       C  0.46881555  0.85733758  0.05725064     0.27100
C1388       C  0.46948441  0.86136190  0.01075220     0.27100
C1389       C  0.59741276  0.85820892  0.05870886     0.27100
C1390       C  0.59817807  0.86123884  0.01217213     0.27100
C1391       C  0.50797364  0.84272704  0.09383899     0.35700
C1392       C  0.55838470  0.84287818  0.09437763     0.35700
C1393       C  0.50928438  0.85288350  0.47337625     0.35700
C1394       C  0.55962068  0.85258957  0.47390264     0.35700
C1395       C  0.44030404  0.86939379  0.04911304    -0.21700
C1396       C  0.44068190  0.87179589  0.01973879    -0.21700
C1397       C  0.62555953  0.87046071  0.05133818    -0.21700
C1398       C  0.62612042  0.87217981  0.02188947    -0.21700
C1399       C  0.51721690  0.83013859  0.11957289    -0.22800
C1400       C  0.54923855  0.83020538  0.11990886    -0.22800
C1401       C  0.51883069  0.84424967  0.44629922    -0.22800
C1402       C  0.55075433  0.84403086  0.44663832    -0.22800
C1403       C  0.47690512  0.84899298  0.08555497    -0.18100
C1404       C  0.47805663  0.85685825  0.48202227    -0.18100
C1405       C  0.59060170  0.85619851  0.48325639    -0.18100
C1406       C  0.58934518  0.84900438  0.08659307    -0.18100
H1407       H  0.42100341  0.87540489  0.06285322     0.14800
H1408       H  0.42173832  0.87989671  0.00643284     0.14800
H1409       H  0.64421733  0.87653858  0.06565308     0.14800
H1410       H  0.64520526  0.87988801  0.00903278     0.14800
H1411       H  0.50244907  0.82200599  0.13641309     0.13000
H1412       H  0.56402333  0.82207063  0.13706135     0.13000
H1413       H  0.50437561  0.83849001  0.42821482     0.13000
H1414       H  0.56561699  0.83804634  0.42885431     0.13000
H1415       H  0.50728589  0.84066233  0.03297966     0.26300
H1416       H  0.56077233  0.84054360  0.03354245     0.26300
C1417       C  0.66204771  0.83683068  0.14962637    -0.05300
C1418       C  0.66267033  0.82112100  0.12386118    -0.32700
C1419       C  0.63920701  0.82499671  0.10330134     0.36500
C1420       C  0.61466679  0.84503868  0.10816689    -0.05700
C1421       C  0.61434708  0.86132218  0.13357012    -0.32600
C1422       C  0.63766411  0.85720431  0.15434861     0.36400
H1423       H  0.68102942  0.80521145  0.11985828     0.16800
O1424       O  0.63969509  0.80826058  0.07897651    -0.60100
H1425       H  0.59580711  0.87710684  0.13736178     0.16800
O1426       O  0.63672604  0.87360962  0.17886466    -0.60200
H1427       H  0.62082079  0.86448077  0.19113461     0.43800
H1428       H  0.65652913  0.81620785  0.06694561     0.43700
C1429       C  0.66011823  0.65608677  0.15220866    -0.05300
C1430       C  0.66227422  0.67181788  0.12651872    -0.32700
C1431       C  0.63924140  0.67002376  0.10551243     0.36500
C1432       C  0.61377017  0.65172742  0.10957881    -0.05700
C1433       C  0.61169083  0.63557239  0.13504936    -0.32600
C1434       C  0.63454882  0.63777449  0.15640954     0.36400
H1435       H  0.68155338  0.68621808  0.12292385     0.16800
O1436       O  0.64163070  0.68655159  0.08116037    -0.60100
H1437       H  0.59209767  0.62149120  0.13845804     0.16800
O1438       O  0.63149378  0.62218710  0.18128297    -0.60200
H1439       H  0.64084442  0.60280047  0.17712761     0.43800
H1440       H  0.62968436  0.70469445  0.08525471     0.43700
C1441       C  0.40317200  0.84441701  0.14798984    -0.05300
C1442       C  0.42814067  0.86323871  0.15222293    -0.32700
C1443       C  0.45199729  0.86514666  0.13197315     0.36500
C1444       C  0.45170551  0.84744030  0.10738244    -0.05700
C1445       C  0.42667016  0.82874984  0.10301890    -0.32600
C1446       C  0.40229926  0.82747217  0.12281399     0.36400
H1447       H  0.42911384  0.87665510  0.17125386     0.16800
O1448       O  0.47558500  0.88432215  0.13644138    -0.60100
H1449       H  0.42602925  0.81512755  0.08410786     0.16800
O1450       O  0.37845548  0.80867725  0.11788396    -0.60200
H1451       H  0.36379812  0.81936164  0.10502042     0.43800
H1452       H  0.46873439  0.90246438  0.12662103     0.43700
C1453       C  0.40600222  0.66924263  0.15362549    -0.05300
C1454       C  0.40341496  0.68402495  0.12728449    -0.32700
C1455       C  0.42605350  0.68050566  0.10593438     0.36500
C1456       C  0.45164380  0.66137792  0.11027393    -0.05700
C1457       C  0.45397566  0.64618247  0.13639055    -0.32600
C1458       C  0.43173900  0.65026808  0.15806745     0.36400
H1459       H  0.38401964  0.69888807  0.12337159     0.16800
O1460       O  0.42305213  0.69609623  0.08096963    -0.60100
H1461       H  0.47336693  0.63125635  0.14009441     0.16800
O1462       O  0.43510912  0.63509470  0.18322801    -0.60200
H1463       H  0.44849726  0.64728482  0.19550280     0.43800
H1464       H  0.43631416  0.71330339  0.08362360     0.43700
C1465       C  0.45287380  0.85465315  0.46021095    -0.05300
C1466       C  0.43090780  0.83272642  0.46321176    -0.32700
C1467       C  0.40766750  0.82897919  0.44265701     0.36500
C1468       C  0.40618457  0.84721290  0.41835429    -0.05700
C1469       C  0.42811520  0.86926664  0.41533507    -0.32600
C1470       C  0.45108106  0.87334688  0.43629970     0.36400
H1471       H  0.43209256  0.81814300  0.48145599     0.16800
O1472       O  0.38687171  0.80702797  0.44634496    -0.60100
H1473       H  0.42723978  0.88357173  0.39688072     0.16800
O1474       O  0.47194317  0.89531589  0.43308701    -0.60200
H1475       H  0.46089026  0.91307768  0.43990584     0.43800
H1476       H  0.39600540  0.79011204  0.43601794     0.43700
C1477       C  0.45103241  0.65576836  0.46304805    -0.05300
C1478       C  0.42683799  0.67563482  0.46946875    -0.32700
C1479       C  0.40252822  0.68103495  0.45004823     0.36500
C1480       C  0.40264792  0.66733732  0.42304099    -0.05700
C1481       C  0.42663153  0.64721565  0.41669538    -0.32600
C1482       C  0.45047087  0.64108425  0.43655994     0.36400
H1483       H  0.42688527  0.68719798  0.48968609     0.16800
O1484       O  0.37941859  0.70054940  0.45736569    -0.60100
H1485       H  0.42681920  0.63597798  0.39630735     0.16800
O1486       O  0.47259569  0.62015227  0.43032882    -0.60200
H1487       H  0.48416460  0.62757704  0.41356080     0.43800
H1488       H  0.36398520  0.68904711  0.46807453     0.43700
C1489       C  0.61635026  0.85265929  0.46218221    -0.05300
C1490       C  0.61754767  0.87060093  0.43785426    -0.32700
C1491       C  0.63922693  0.86498553  0.41606062     0.36500
C1492       C  0.66085522  0.84173604  0.41890697    -0.05700
C1493       C  0.66050500  0.82470881  0.44389918    -0.32600
C1494       C  0.63834182  0.82982301  0.46527130     0.36400
H1495       H  0.60086870  0.88836555  0.43532232     0.16800
O1496       O  0.63921988  0.88248283  0.39225256    -0.60100
H1497       H  0.67676946  0.80661771  0.44645502     0.16800
O1498       O  0.63706175  0.81125651  0.48825794    -0.60200
H1499       H  0.65417580  0.81715674  0.50119890     0.43800
H1500       H  0.62283633  0.87466115  0.37953456     0.43700
C1501       C  0.66267740  0.65605262  0.42095670    -0.05300
C1502       C  0.63747815  0.63775267  0.41559355    -0.32700
C1503       C  0.61420193  0.63386958  0.43617430     0.36500
C1504       C  0.61519588  0.64919284  0.46233984    -0.05700
C1505       C  0.64070064  0.66705115  0.46787457    -0.32600
C1506       C  0.66439011  0.67033468  0.44765402     0.36400
H1507       H  0.63582797  0.62632218  0.39537828     0.16800
O1508       O  0.59033897  0.61536810  0.43028756    -0.60100
H1509       H  0.64201536  0.67890921  0.48787633     0.16800
O1510       O  0.68884337  0.68795324  0.45413651    -0.60200
H1511       H  0.68231272  0.70758249  0.44740007     0.43800
H1512       H  0.59477950  0.59775327  0.44196727     0.43700
C1513       C  0.11641388  0.90649210  0.10747070    -0.05300
C1514       C  0.11716764  0.88940807  0.13249090    -0.32700
C1515       C  0.13945072  0.89423338  0.15402934     0.36500
C1516       C  0.16135920  0.91649239  0.15071485    -0.05700
C1517       C  0.16102279  0.93286087  0.12529490    -0.32600
C1518       C  0.13875069  0.92818358  0.10397959     0.36400
H1519       H  0.10014664  0.87259005  0.13545887     0.16800
O1520       O  0.13946341  0.87720440  0.17817434    -0.60100
H1521       H  0.17762644  0.95001200  0.12219066     0.16800
O1522       O  0.13856755  0.94545337  0.08000150    -0.60200
H1523       H  0.12327735  0.96128653  0.08410559     0.43800
H1524       H  0.15321538  0.86032625  0.17357212     0.43700
C1525       C  0.15872250  0.59708460  0.15135518    -0.05300
C1526       C  0.16276637  0.61516562  0.12748519    -0.32700
C1527       C  0.13953197  0.61769956  0.10640264     0.36500
C1528       C  0.11227821  0.60117514  0.10850476    -0.05700
C1529       C  0.10863716  0.58268085  0.13216157    -0.32600
C1530       C  0.13143907  0.58076662  0.15358458     0.36400
H1531       H  0.18375102  0.62770392  0.12545007     0.16800
O1532       O  0.14375971  0.63619863  0.08373321    -0.60100
H1533       H  0.08809726  0.56947430  0.13389116     0.16800
O1534       O  0.12724005  0.56225590  0.17625341    -0.60200
H1535       H  0.13491517  0.54301091  0.16949785     0.43800
H1536       H  0.13201673  0.65420378  0.08878684     0.43700
C1537       C  0.90560350  0.90824023  0.14910775    -0.05300
C1538       C  0.90337251  0.92524058  0.12411828    -0.32700
C1539       C  0.92712467  0.92460163  0.10366799     0.36500
C1540       C  0.95340139  0.90623018  0.10760602    -0.05700
C1541       C  0.95545195  0.88892522  0.13236396    -0.32600
C1542       C  0.93191114  0.88989406  0.15305538     0.36400
H1543       H  0.88348725  0.93966415  0.12072151     0.16800
O1544       O  0.92450952  0.94211625  0.07993368    -0.60100
H1545       H  0.97538777  0.87452583  0.13559677     0.16800
O1546       O  0.93487761  0.87275533  0.17700041    -0.60200
H1547       H  0.92476999  0.85425712  0.17189637     0.43800
H1548       H  0.93602917  0.95991552  0.08486123     0.43700
C1549       C  0.90669372  0.58473994  0.15138237    -0.05300
C1550       C  0.93531523  0.56970816  0.15310370    -0.32700
C1551       C  0.95802838  0.57338087  0.13203910     0.36500
C1552       C  0.95262011  0.59304675  0.10932408    -0.05700
C1553       C  0.92417796  0.60850899  0.10792675    -0.32600
C1554       C  0.90109463  0.60412803  0.12850722     0.36400
H1555       H  0.93966438  0.55429957  0.17030099     0.16800
O1556       O  0.98475157  0.55659721  0.13291865    -0.60100
H1557       H  0.91974786  0.62370835  0.09056865     0.16800
O1558       O  0.87353022  0.61951495  0.12656073    -0.60200
H1559       H  0.86008798  0.60779079  0.11389730     0.43800
H1560       H  0.99709487  0.56421832  0.14916695     0.43700
C1561       C  0.16257290  0.92106338  0.41960961    -0.05300
C1562       C  0.13886848  0.90131577  0.41360713    -0.32700
C1563       C  0.11566334  0.89562356  0.43381676     0.36500
C1564       C  0.11554447  0.91026073  0.46034056    -0.05700
C1565       C  0.13927926  0.92994036  0.46633656    -0.32600
C1566       C  0.16285190  0.93510248  0.44646419     0.36400
H1567       H  0.13846829  0.88996260  0.39328706     0.16800
O1568       O  0.09374441  0.87510884  0.42790070    -0.60100
H1569       H  0.13943805  0.94148609  0.48656213     0.16800
O1570       O  0.18548477  0.95459424  0.45325740    -0.60200
H1571       H  0.20176186  0.94306234  0.46352505     0.43800
H1572       H  0.08112654  0.88312947  0.41180266     0.43700
C1573       C  0.15756986  0.59437388  0.41768140    -0.05300
C1574       C  0.13281914  0.57495557  0.41646854    -0.32700
C1575       C  0.10977388  0.57547965  0.43756405     0.36500
C1576       C  0.11078221  0.59635426  0.45956105    -0.05700
C1577       C  0.13543112  0.61590133  0.46058465    -0.32600
C1578       C  0.15889120  0.61485435  0.43993419     0.36400
H1579       H  0.13189725  0.55879143  0.39963176     0.16800
O1580       O  0.08655358  0.55541490  0.43673252    -0.60100
H1581       H  0.13644163  0.63196780  0.47750100     0.16800
O1582       O  0.18282548  0.63410881  0.44148425    -0.60200
H1583       H  0.17599185  0.65093737  0.42960596     0.43800
H1584       H  0.09612333  0.53732371  0.94706360     0.43700
C1585       C  0.90361823  0.90705878  0.41924913    -0.05300
C1586       C  0.92982223  0.88895696  0.41464673    -0.32700
C1587       C  0.95400155  0.88722207  0.43491016     0.36500
C1588       C  0.95259991  0.90420265  0.46001545    -0.05700
C1589       C  0.92644219  0.92227779  0.46458742    -0.32600
C1590       C  0.90201763  0.92361067  0.44467241     0.36400
H1591       H  0.93157094  0.87606210  0.39529446     0.16800
O1592       O  0.97900100  0.86901155  0.42989723    -0.60100
H1593       H  0.92506709  0.93561383  0.48368037     0.16800
O1594       O  0.87738301  0.94224801  0.44971552    -0.60200
H1595       H  0.86273132  0.93100998  0.46157727     0.43800
H1596       H  0.97393908  0.85056943  0.43968425     0.43700
C1597       C  0.95134125  0.59064747  0.45984634    -0.05300
C1598       C  0.92428153  0.60813617  0.45941559    -0.32700
C1599       C  0.90144056  0.60407845  0.43842670     0.36500
C1600       C  0.90589012  0.58272108  0.41723525    -0.05700
C1601       C  0.93305788  0.56540809  0.41748404    -0.32600
C1602       C  0.95560617  0.56903963  0.43881230     0.36400
H1603       H  0.92090926  0.62492288  0.47542207     0.16800
O1604       O  0.87545416  0.62183011  0.43805704    -0.60100
H1605       H  0.93643076  0.54856759  0.40152599     0.16800
O1606       O  0.98117156  0.55073650  0.43966616    -0.60200
H1607       H  0.99493531  0.55739836  0.42405284     0.43800
H1608       H  0.86124312  0.61345964  0.45245655     0.43700
In1609     In  0.83917806  0.56700070  0.85616165     1.36900
C1610       C  0.84123876  0.57099236  0.79968084     0.77700
O1611       O  0.85985327  0.52276611  0.85001003    -0.60700
O1612       O  0.81553673  0.52548126  0.86999440    -0.51600
C1613       C  0.88180556  0.57722795  0.89563655     0.70400
O1614       O  0.88849817  0.57417932  0.86949718    -0.46500
C1615       C  0.79614573  0.60848322  0.86374361     0.75100
O1616       O  0.86224262  0.58184203  0.81515369    -0.58300
O1617       O  0.79045036  0.58182661  0.86700602    -0.48400
O1618       O  0.81954719  0.55913456  0.81313994    -0.54800
C1619       C  0.83727162  0.50937025  0.86044506     0.85300
O1620       O  0.85328253  0.57535975  0.90152587    -0.56700
O1621       O  0.82408186  0.61393707  0.85784902    -0.60000
In1622     In  0.83679375  0.91989310  0.85615427     1.36900
C1623       C  0.83975792  0.91721156  0.79935825     0.77700
O1624       O  0.82101015  0.87374101  0.85960230    -0.60700
O1625       O  0.78719445  0.90748417  0.86514968    -0.51600
C1626       C  0.87902633  0.90977393  0.89697852     0.70400
O1627       O  0.88321962  0.90207021  0.87125488    -0.46500
C1628       C  0.83664873  0.97749444  0.86010777     0.75100
O1629       O  0.86189471  0.90785391  0.81495309    -0.58300
O1630       O  0.81462719  0.96269406  0.87006778    -0.48400
O1631       O  0.81665573  0.92729399  0.81282453    -0.54800
C1632       C  0.79277193  0.88052977  0.86329524     0.85300
O1633       O  0.85258246  0.92106457  0.90183915    -0.56700
O1634       O  0.85837406  0.96281718  0.84878291    -0.60000
In1635     In  0.22668178  0.58430642  0.85787277     1.36900
C1636       C  0.22462569  0.58828791  0.80108222     0.77700
O1637       O  0.24044729  0.63085858  0.86268263    -0.60700
O1638       O  0.27530638  0.59781068  0.86834252    -0.51600
C1639       C  0.18231948  0.59203027  0.89625237     0.70400
O1640       O  0.17661675  0.58984538  0.86981115    -0.46500
C1641       C  0.22993963  0.52707709  0.86303355     0.75100
O1642       O  0.20441425  0.60095459  0.81648245    -0.58300
O1643       O  0.25161640  0.54275252  0.87240419    -0.48400
O1644       O  0.24558127  0.57473006  0.81475730    -0.54800
C1645       C  0.26879899  0.62466873  0.86709871     0.85300
O1646       O  0.21080663  0.59152002  0.90294757    -0.56700
O1647       O  0.20717680  0.54075411  0.85226129    -0.60000
In1648     In  0.22929263  0.93815976  0.85839994     1.33700
C1649       C  0.22645719  0.93554159  0.80132078     0.77700
O1650       O  0.20797120  0.98168200  0.85261064    -0.60700
O1651       O  0.25290465  0.97967803  0.87208343    -0.51600
C1652       C  0.18672587  0.92701354  0.89787313     0.70400
O1653       O  0.18361314  0.91985846  0.87189543    -0.46500
C1654       C  0.27212682  0.89709942  0.86723254     0.75100
O1655       O  0.20349110  0.92928245  0.81681684    -0.58300
O1656       O  0.27824315  0.92375316  0.86905972    -0.48400
O1657       O  0.25049050  0.94254968  0.81498248    -0.54800
C1658       C  0.23047792  0.99534555  0.86301605     0.85300
O1659       O  0.21191554  0.93952441  0.90356538    -0.56700
O1660       O  0.24390610  0.89157368  0.86293948    -0.60000
In1661     In  0.83985669  0.56726266  0.71179769     1.36900
C1662       C  0.84147419  0.57090760  0.76839939     0.77700
O1663       O  0.82389572  0.61370355  0.71048124    -0.60700
O1664       O  0.79069104  0.58109034  0.70137147    -0.51600
C1665       C  0.88287167  0.57939618  0.67321186     0.70400
O1666       O  0.88926754  0.57526448  0.69933598    -0.46500
C1667       C  0.83803541  0.50974586  0.70670909     0.75100
O1668       O  0.86217406  0.58245329  0.75321188    -0.58300
O1669       O  0.81630190  0.52591033  0.69705996    -0.48400
O1670       O  0.82048080  0.55827619  0.75463193    -0.54800
C1671       C  0.79597626  0.60776289  0.70495659     0.85300
O1672       O  0.85438801  0.57757369  0.66689233    -0.56700
O1673       O  0.86063897  0.52308008  0.71730754    -0.60000
In1674     In  0.83855506  0.92025522  0.71109924     1.36900
C1675       C  0.84015091  0.91729049  0.76795313     0.77700
O1676       O  0.85928734  0.96337058  0.71874757    -0.60700
O1677       O  0.81565274  0.96286215  0.69696041    -0.51600
C1678       C  0.88140871  0.91124798  0.67111405     0.70400
O1679       O  0.88549002  0.90376478  0.69696534    -0.46500
C1680       C  0.79644236  0.87935908  0.70292784     0.75100
O1681       O  0.86294830  0.90861889  0.75296586    -0.58300
O1682       O  0.78984946  0.90615537  0.70120424    -0.48400
O1683       O  0.81712040  0.92687220  0.75386603    -0.54800
C1684       C  0.83750702  0.97785606  0.70710826     0.85300
O1685       O  0.85486728  0.92218950  0.66568518    -0.56700
O1686       O  0.82490090  0.87344246  0.70679656    -0.60000
In1687     In  0.22679359  0.58457646  0.71281743     1.36900
C1688       C  0.22445778  0.58815231  0.76967134     0.77700
O1689       O  0.20569014  0.54129586  0.71850630    -0.60700
O1690       O  0.24971832  0.54223308  0.69789205    -0.51600
C1691       C  0.18347849  0.59417133  0.67316748     0.70400
O1692       O  0.17757541  0.59452981  0.69967593    -0.46500
C1693       C  0.27068289  0.62421840  0.70619600     0.75100
O1694       O  0.20413860  0.60073272  0.75412999    -0.58300
O1695       O  0.27666177  0.59724893  0.70615034    -0.48400
O1696       O  0.24526009  0.57445315  0.75613307    -0.54800
C1697       C  0.22776593  0.52701148  0.70739556     0.85300
O1698       O  0.21186721  0.59043802  0.66696847    -0.56700
O1699       O  0.24211577  0.63084985  0.70768639    -0.60000
In1700     In  0.22687509  0.93755217  0.71269600     1.36900
C1701       C  0.22584142  0.93542020  0.76984623     0.77700
O1702       O  0.24241032  0.89116672  0.70803843    -0.60700
O1703       O  0.27627263  0.92382597  0.70265820    -0.51600
C1704       C  0.18475825  0.92347122  0.67320852     0.70400
O1705       O  0.18220695  0.91610089  0.69920249    -0.46500
C1706       C  0.22762400  0.99510631  0.70733792     0.75100
O1707       O  0.20194049  0.93023958  0.75496638    -0.58300
O1708       O  0.24952684  0.97920706  0.69778415    -0.48400
O1709       O  0.24972195  0.94117495  0.75555025    -0.54800
C1710       C  0.27055435  0.89704058  0.70398300     0.85300
O1711       O  0.20870763  0.93797355  0.66777767    -0.56700
O1712       O  0.20540104  0.98149706  0.71828918    -0.60000
N1713       N  0.98751963  0.90429972  0.53373050    -0.36500
N1714       N  0.03427056  0.90262225  0.98932311    -0.57000
N1715       N  0.08171680  0.90352253  0.53381843    -0.36500
N1716       N  0.03504854  0.90206519  0.57825246    -0.57000
C1717       C  0.97071260  0.89633488  0.51054842     0.27100
C1718       C  0.97102101  0.89703210  0.55720053     0.27100
C1719       C  0.09895423  0.89779773  0.51022726     0.27100
C1720       C  0.09931023  0.89638524  0.55699797     0.27100
C1721       C  0.00862919  0.90961219  0.97373793     0.35700
C1722       C  0.05898859  0.91119980  0.97384572     0.35700
C1723       C  0.00989005  0.91007888  0.59383380     0.35700
C1724       C  0.06029147  0.90882732  0.59407855     0.35700
C1725       C  0.94345479  0.88343378  0.51939952    -0.21700
C1726       C  0.94363674  0.88390215  0.54890717    -0.21700
C1727       C  0.12771796  0.88634462  0.51847362    -0.21700
C1728       C  0.12794185  0.88546660  0.54802885    -0.21700
C1729       C  0.01699867  0.92264262  0.94820271    -0.22800
C1730       C  0.04895960  0.92387420  0.94836627    -0.22800
C1731       C  0.01913578  0.92198983  0.61969421    -0.22800
C1732       C  0.05114775  0.92115829  0.61987217    -0.22800
C1733       C  0.97799724  0.90286490  0.98194410    -0.18100
C1734       C  0.97887291  0.90464000  0.58561072    -0.18100
C1735       C  0.09135280  0.90293425  0.58574893    -0.18100
C1736       C  0.09038078  0.90599686  0.98192243    -0.18100
H1737       H  0.92502150  0.87517333  0.50598564     0.14800
H1738       H  0.92538450  0.87606853  0.56268511     0.14800
H1739       H  0.14690287  0.88015671  0.50466427     0.14800
H1740       H  0.14734123  0.87856767  0.56141279     0.14800
H1741       H  0.00169458  0.93054158  0.93132821     0.13000
H1742       H  0.06313948  0.93295071  0.93158207     0.13000
H1743       H  0.00438729  0.93030222  0.63667180     0.13000
H1744       H  0.06594279  0.92886044  0.63696719     0.13000
H1745       H  0.00694696  0.91750425  0.53356623     0.26300
H1746       H  0.06107539  0.91567410  0.53411453     0.26300
N1747       N  0.98357204  0.59837931  0.53433443    -0.36500
N1748       N  0.03195574  0.60031487  0.57760823    -0.57000
N1749       N  0.07882847  0.60152994  0.53379405    -0.36500
N1750       N  0.03070528  0.59817437  0.99051077    -0.57000
C1751       C  0.96806007  0.58973226  0.55791189     0.27100
C1752       C  0.96738992  0.58918373  0.51126905     0.27100
C1753       C  0.09593313  0.59445596  0.55722909     0.27100
C1754       C  0.09513045  0.59244440  0.51068180     0.27100
C1755       C  0.00654757  0.60562410  0.59382396     0.35700
C1756       C  0.05679586  0.60807536  0.59347122     0.35700
C1757       C  0.00521175  0.60307301  0.97417263     0.35700
C1758       C  0.05542354  0.60388076  0.97385712     0.35700
C1759       C  0.94165356  0.57487283  0.54973682    -0.21700
C1760       C  0.94118864  0.57460417  0.52022063    -0.21700
C1761       C  0.12334274  0.58053863  0.54894234    -0.21700
C1762       C  0.12285670  0.57931744  0.51946191    -0.21700
C1763       C  0.01517793  0.61735988  0.61994723    -0.22800
C1764       C  0.04711288  0.61893024  0.61972166    -0.22800
C1765       C  0.01367701  0.61246020  0.94710407    -0.22800
C1766       C  0.04565426  0.61293431  0.94688757    -0.22800
C1767       C  0.97634026  0.59663235  0.58642269    -0.18100
C1768       C  0.97502248  0.59524288  0.98241619    -0.18100
C1769       C  0.08642656  0.59775336  0.98200864    -0.18100
C1770       C  0.08792980  0.60191638  0.58564360    -0.18100
H1771       H  0.92440737  0.56536815  0.56356823     0.14800
H1772       H  0.92355822  0.56485270  0.50689108     0.14800
H1773       H  0.14186531  0.57234027  0.56267645     0.14800
H1774       H  0.14094842  0.57007097  0.50600949     0.14800
H1775       H  0.00011775  0.62328224  0.63762454     0.13000
H1776       H  0.06157871  0.62632796  0.63718975     0.13000
H1777       H  0.99845956  0.61735328  0.92912996     0.13000
H1778       H  0.06005118  0.61839713  0.92874272     0.13000
H1779       H  0.00226530  0.61247520  0.53397092     0.26300
H1780       H  0.05895403  0.61484304  0.53344546     0.26300
In1781     In  0.72759458  0.67205493  0.85768890     1.36900
C1782       C  0.72562566  0.66871520  0.80114231     0.77700
O1783       O  0.70520848  0.71531557  0.84909893    -0.60700
O1784       O  0.74805226  0.71464099  0.87218692    -0.51600
C1785       C  0.68627195  0.66105748  0.89830817     0.70400
O1786       O  0.68197785  0.65422422  0.87235029    -0.46500
C1787       C  0.77174753  0.63124902  0.86449309     0.75100
O1788       O  0.70268806  0.66144074  0.81630016    -0.58300
O1789       O  0.77758071  0.65804892  0.86527924    -0.48400
O1790       O  0.74900435  0.67716359  0.81492419    -0.54800
C1791       C  0.72622676  0.72974136  0.86109275     0.85300
O1792       O  0.71212870  0.67269977  0.90333441    -0.56700
O1793       O  0.74328045  0.62547276  0.86234513    -0.60000
In1794     In  0.72453239  0.81922208  0.85577067     1.36900
C1795       C  0.72383192  0.82057767  0.79894477     0.77700
O1796       O  0.74003707  0.86548928  0.85855163    -0.60700
O1797       O  0.77380103  0.83186171  0.86553481    -0.51600
C1798       C  0.68350015  0.83408337  0.89590087     0.70400
O1799       O  0.67984626  0.84119526  0.86989093    -0.46500
C1800       C  0.72538754  0.76166340  0.86083731     0.75100
O1801       O  0.69971886  0.82682014  0.81333204    -0.58300
O1802       O  0.74665919  0.77707910  0.87132695    -0.48400
O1803       O  0.74760211  0.81410381  0.81359382    -0.54800
C1804       C  0.76819084  0.85878945  0.86313051     0.85300
O1805       O  0.70803229  0.81947492  0.90105073    -0.56700
O1806       O  0.70343712  0.77575543  0.84894113    -0.60000
In1807     In  0.33620135  0.68668729  0.86104586     1.36900
C1808       C  0.33854040  0.68360557  0.80415102     0.77700
O1809       O  0.32120734  0.64053622  0.86495294    -0.60700
O1810       O  0.28663595  0.67378767  0.86970139    -0.51600
C1811       C  0.37866009  0.67388523  0.90102275     0.70400
O1812       O  0.38233772  0.66781338  0.87483608    -0.46500
C1813       C  0.33643881  0.74425547  0.86379160     0.75100
O1814       O  0.36107559  0.67516040  0.81973957    -0.58300
O1815       O  0.31510352  0.72982899  0.87548306    -0.48400
O1816       O  0.31505986  0.69284684  0.81768069    -0.54800
C1817       C  0.29279874  0.64689797  0.86805609     0.85300
O1818       O  0.35295899  0.68629414  0.90674183    -0.56700
O1819       O  0.35757077  0.72921521  0.85206437    -0.60000
In1820     In  0.33886626  0.83340133  0.85704789     1.36900
C1821       C  0.34016306  0.83674328  0.80011216     0.77700
O1822       O  0.35836989  0.78902034  0.84962913    -0.60700
O1823       O  0.31613129  0.79249973  0.87322821    -0.51600
C1824       C  0.38218838  0.84318916  0.89612492     0.70400
O1825       O  0.38479039  0.85187754  0.87054259    -0.46500
C1826       C  0.29619901  0.87431789  0.86692982     0.75100
O1827       O  0.36345735  0.84328685  0.81522976    -0.58300
O1828       O  0.28990134  0.84765998  0.86696936    -0.48400
O1829       O  0.31667134  0.82913086  0.81409605    -0.54800
C1830       C  0.33691643  0.77607091  0.86253457     0.85300
O1831       O  0.35727293  0.83020422  0.90145378    -0.56700
O1832       O  0.32455748  0.87990449  0.86382934    -0.60000
In1833     In  0.33860218  0.68598655  0.71556304     1.36900
C1834       C  0.33918386  0.68363164  0.77268340     0.77700
O1835       O  0.35934182  0.72943303  0.72292074    -0.60700
O1836       O  0.31621023  0.72824176  0.70037989    -0.51600
C1837       C  0.38181158  0.67436608  0.67581449     0.70400
O1838       O  0.38530550  0.66728056  0.70185045    -0.46500
C1839       C  0.29514536  0.64616881  0.70690392     0.75100
O1840       O  0.36219191  0.67494670  0.75798037    -0.58300
O1841       O  0.28955841  0.67306430  0.70423909    -0.48400
O1842       O  0.31636831  0.69309722  0.75822566    -0.54800
C1843       C  0.33763721  0.74357413  0.71072901     0.85300
O1844       O  0.35603787  0.68676677  0.67031341    -0.56700
O1845       O  0.32317577  0.63966055  0.71227963    -0.60000
In1846     In  0.33791096  0.83309514  0.71188408     1.36900
C1847       C  0.33993381  0.83673201  0.76868647     0.77700
O1848       O  0.32322113  0.87993490  0.70735189    -0.60700
O1849       O  0.28884179  0.84766558  0.70205853    -0.51600
C1850       C  0.37952482  0.84154661  0.67093766     0.70400
O1851       O  0.38423069  0.84867851  0.69674143    -0.46500
C1852       C  0.33753300  0.77545680  0.70971505     0.75100
O1853       O  0.36236105  0.84493882  0.75335682    -0.58300
O1854       O  0.31546329  0.79078233  0.69935425    -0.48400
O1855       O  0.31687309  0.82751291  0.75494115    -0.54800
C1856       C  0.29489052  0.87436458  0.70362975     0.85300
O1857       O  0.35303603  0.83112150  0.66608763    -0.56700
O1858       O  0.35968320  0.78963635  0.72016230    -0.60000
In1859     In  0.72767901  0.67068267  0.71322008     1.36900
C1860       C  0.72571757  0.66833410  0.76984952     0.77700
O1861       O  0.74312185  0.62407850  0.70867461    -0.60700
O1862       O  0.77693571  0.65686086  0.70378924    -0.51600
C1863       C  0.68428078  0.66033390  0.67435422     0.70400
O1864       O  0.68114680  0.65314530  0.70031397    -0.46500
C1865       C  0.72916321  0.72802865  0.70807430     0.75100
O1866       O  0.70267702  0.66121958  0.75468208    -0.58300
O1867       O  0.74998706  0.71185523  0.69708459    -0.48400
O1868       O  0.74933043  0.67595131  0.75604939    -0.54800
C1869       C  0.77132559  0.63009064  0.70507377     0.85300
O1870       O  0.70991065  0.67188257  0.66851785    -0.56700
O1871       O  0.70782807  0.71481359  0.72081727    -0.60000
In1872     In  0.72895807  0.81736353  0.71093476     1.36900
C1873       C  0.72495079  0.82022306  0.76760193     0.77700
O1874       O  0.70793494  0.77450587  0.71900021    -0.60700
O1875       O  0.75090766  0.77461167  0.69641643    -0.51600
C1876       C  0.68654236  0.83072979  0.67139637     0.70400
O1877       O  0.68413650  0.83876008  0.69716617    -0.46500
C1878       C  0.77248709  0.85701902  0.70308910     0.75100
O1879       O  0.70194647  0.82631339  0.75164261    -0.58300
O1880       O  0.77860551  0.83009231  0.70191952    -0.48400
O1881       O  0.74958659  0.81325422  0.75456574    -0.54800
C1882       C  0.72943551  0.75983554  0.70740383     0.85300
O1883       O  0.71104687  0.81625699  0.66587796    -0.56700
O1884       O  0.74415375  0.86341196  0.70660489    -0.60000
N1885       N  0.48582564  0.65391291  0.53606478    -0.36500
N1886       N  0.53237939  0.65304799  0.58006918    -0.57000
N1887       N  0.57994972  0.64924403  0.53564366    -0.36500
N1888       N  0.53319854  0.64714381  0.99135879    -0.57000
C1889       C  0.46840702  0.64914129  0.55970482     0.27100
C1890       C  0.46902653  0.64541822  0.51311285     0.27100
C1891       C  0.59648058  0.64220081  0.55943155     0.27100
C1892       C  0.59711260  0.64082787  0.51274913     0.27100
C1893       C  0.50772938  0.66258880  0.59555917     0.35700
C1894       C  0.55803451  0.65929337  0.59545447     0.35700
C1895       C  0.50796529  0.65558205  0.97586617     0.35700
C1896       C  0.55842582  0.65401751  0.97561423     0.35700
C1897       C  0.44043706  0.63693288  0.55173471    -0.21700
C1898       C  0.44084124  0.63453594  0.52228587    -0.21700
C1899       C  0.62428702  0.62866125  0.55158239    -0.21700
C1900       C  0.62473056  0.62789468  0.52206573    -0.21700
C1901       C  0.51775977  0.67514677  0.62085382    -0.22800
C1902       C  0.54970411  0.67300309  0.62081879    -0.22800
C1903       C  0.51720155  0.66788114  0.95019333    -0.22800
C1904       C  0.54919744  0.66684619  0.95001490    -0.22800
C1905       C  0.47641856  0.65783482  0.58784312    -0.18100
C1906       C  0.47681597  0.65121073  0.98441574    -0.18100
C1907       C  0.58951705  0.64768840  0.98391715    -0.18100
C1908       C  0.58858994  0.65085137  0.58762743    -0.18100
H1909       H  0.42143755  0.63103022  0.56562089     0.14800
H1910       H  0.42208993  0.62663084  0.50902931     0.14800
H1911       H  0.64278297  0.62100986  0.56564518     0.14800
H1912       H  0.64353486  0.61942855  0.50895735     0.14800
H1913       H  0.50359626  0.68461070  0.63767573     0.13000
H1914       H  0.56499337  0.68052912  0.63761880     0.13000
H1915       H  0.50248142  0.67694263  0.93344728     0.13000
H1916       H  0.56392593  0.67489335  0.93311208     0.13000
H1917       H  0.50594992  0.66615715  0.53520525     0.26300
H1918       H  0.56024336  0.66271731  0.53498460     0.26300
N1919       N  0.48654430  0.85241309  0.53397534    -0.36500
N1920       N  0.53326627  0.85080318  0.57876882    -0.57000
N1921       N  0.58070421  0.85326053  0.53484857    -0.36500
N1922       N  0.53431833  0.85861355  0.98996306    -0.57000
C1923       C  0.46891984  0.85736986  0.55751541     0.27100
C1924       C  0.46946794  0.86098173  0.51097159     0.27100
C1925       C  0.59743846  0.85857623  0.55878576     0.27100
C1926       C  0.59807955  0.86147528  0.51224612     0.27100
C1927       C  0.50815085  0.84304915  0.59411981     0.35700
C1928       C  0.55854919  0.84323190  0.59454516     0.35700
C1929       C  0.50935327  0.85362064  0.97312311     0.35700
C1930       C  0.55968429  0.85296942  0.97370980     0.35700
C1931       C  0.44041772  0.86941789  0.54935163    -0.21700
C1932       C  0.44072638  0.87158298  0.51995275    -0.21700
C1933       C  0.62552337  0.87089213  0.55133403    -0.21700
C1934       C  0.62599514  0.87255679  0.52187735    -0.21700
C1935       C  0.51746530  0.83049537  0.61984825    -0.22800
C1936       C  0.54948558  0.83057104  0.62010649    -0.22800
C1937       C  0.51885876  0.84523193  0.94596601    -0.22800
C1938       C  0.55077360  0.84474965  0.94635177    -0.22800
C1939       C  0.47706698  0.84922906  0.58586340    -0.18100
C1940       C  0.47813097  0.85747229  0.98180246    -0.18100
C1941       C  0.59069743  0.85620539  0.98313585    -0.18100
C1942       C  0.58947567  0.84936295  0.58668165    -0.18100
H1943       H  0.42117747  0.87558656  0.56309957     0.14800
H1944       H  0.42177605  0.87964546  0.50663391     0.14800
H1945       H  0.64420211  0.87702798  0.56560029     0.14800
H1946       H  0.64503089  0.88026586  0.50895891     0.14800
H1947       H  0.50274632  0.82235512  0.63672127     0.13000
H1948       H  0.56432556  0.82245014  0.63722530     0.13000
H1949       H  0.50437913  0.83973563  0.92781438     0.13000
H1950       H  0.56559179  0.83877875  0.92853435     0.13000
H1951       H  0.50730039  0.84039083  0.53329773     0.26300
H1952       H  0.56081697  0.84068611  0.53376216     0.26300
C1953       C  0.66230944  0.83692748  0.64951286    -0.05300
C1954       C  0.66269989  0.82109820  0.62381162    -0.32700
C1955       C  0.63919239  0.82507172  0.60330656     0.36500
C1956       C  0.61486347  0.84533554  0.60815939    -0.05700
C1957       C  0.61476711  0.86172083  0.63349115    -0.32600
C1958       C  0.63811033  0.85750152  0.65421789     0.36400
H1959       H  0.68089762  0.80502287  0.61982800     0.16800
O1960       O  0.63940663  0.80820281  0.57907130    -0.60100
H1961       H  0.59636337  0.87764567  0.63727808     0.16800
O1962       O  0.63733601  0.87396487  0.67869564    -0.60200
H1963       H  0.62194828  0.86452661  0.69129176     0.43800
H1964       H  0.65598189  0.81619720  0.56676990     0.43700
C1965       C  0.65989299  0.65656639  0.65235324    -0.05300
C1966       C  0.66223365  0.67211818  0.62656836    -0.32700
C1967       C  0.63926941  0.67031393  0.60549997     0.36500
C1968       C  0.61364695  0.65219689  0.60961276    -0.05700
C1969       C  0.61136168  0.63625958  0.63520103    -0.32600
C1970       C  0.63414529  0.63848629  0.65662111     0.36400
H1971       H  0.68165132  0.68634087  0.62291370     0.16800
O1972       O  0.64194291  0.68659389  0.58101199    -0.60100
H1973       H  0.59165987  0.62232058  0.63865303     0.16800
O1974       O  0.63084646  0.62313334  0.68160699    -0.60200
H1975       H  0.64024821  0.60372127  0.67771028     0.43800
H1976       H  0.62886790  0.70423234  0.58432737     0.43700
C1977       C  0.40351787  0.84438146  0.64844259    -0.05300
C1978       C  0.42834404  0.86339028  0.65259723    -0.32700
C1979       C  0.45214875  0.86540733  0.63230258     0.36500
C1980       C  0.45190816  0.84765773  0.60772449    -0.05700
C1981       C  0.42702493  0.82878257  0.60346177    -0.32600
C1982       C  0.40275197  0.82734176  0.62333127     0.36400
H1983       H  0.42923951  0.87685326  0.67160027     0.16800
O1984       O  0.47565229  0.88468193  0.63676452    -0.60100
H1985       H  0.42645776  0.81509438  0.58459481     0.16800
O1986       O  0.37913390  0.80826208  0.61856040    -0.60200
H1987       H  0.36426972  0.81875006  0.60574361     0.43800
H1988       H  0.47021675  0.90177885  0.62467564     0.43700
C1989       C  0.40587687  0.66923459  0.65340365    -0.05300
C1990       C  0.40332416  0.68406998  0.62709116    -0.32700
C1991       C  0.42596972  0.68055772  0.60574606     0.36500
C1992       C  0.45150972  0.66136896  0.61005421    -0.05700
C1993       C  0.45379043  0.64609793  0.63612945    -0.32600
C1994       C  0.43156293  0.65019142  0.65781182     0.36400
H1995       H  0.38396964  0.69898810  0.62320905     0.16800
O1996       O  0.42305744  0.69624552  0.58083427    -0.60100
H1997       H  0.47315097  0.63112985  0.63980632     0.16800
O1998       O  0.43489937  0.63497296  0.68294928    -0.60200
H1999       H  0.44827896  0.64713760  0.69525758     0.43800
H2000       H  0.43583434  0.71372055  0.58381540     0.43700
C2001       C  0.45297474  0.85511938  0.96001822    -0.05300
C2002       C  0.43162453  0.83263150  0.96268510    -0.32700
C2003       C  0.40845909  0.82871244  0.94210601     0.36500
C2004       C  0.40638340  0.84739968  0.91817561    -0.05700
C2005       C  0.42773261  0.86998804  0.91546409    -0.32600
C2006       C  0.45067912  0.87417211  0.93642095     0.36400
H2007       H  0.43326176  0.81774378  0.98066681     0.16800
O2008       O  0.38834724  0.80614181  0.94537415    -0.60100
H2009       H  0.42640391  0.88461323  0.89727072     0.16800
O2010       O  0.47102247  0.89660213  0.93351028    -0.60200
H2011       H  0.45992057  0.91386638  0.94140180     0.43800
H2012       H  0.39765128  0.78984929  0.93423840     0.43700
C2013       C  0.45101061  0.65563029  0.96318434    -0.05300
C2014       C  0.42682468  0.67553677  0.96948915    -0.32700
C2015       C  0.40259964  0.68093573  0.94997609     0.36500
C2016       C  0.40276628  0.66715681  0.92300307    -0.05700
C2017       C  0.42674756  0.64699118  0.91677283    -0.32600
C2018       C  0.45052770  0.64089794  0.93671744     0.36400
H2019       H  0.42683252  0.68715935  0.98967348     0.16800
O2020       O  0.37953479  0.70054629  0.95716520    -0.60100
H2021       H  0.42699133  0.63570889  0.89640932     0.16800
O2022       O  0.47269853  0.61998480  0.93056691    -0.60200
H2023       H  0.48444849  0.62750511  0.91395074     0.43800
H2024       H  0.36399745  0.68912044  0.96782450     0.43700
C2025       C  0.61644767  0.85260825  0.96205180    -0.05300
C2026       C  0.61766602  0.87052510  0.93770142    -0.32700
C2027       C  0.63925134  0.86480750  0.91585519     0.36500
C2028       C  0.66083969  0.84152622  0.91869464    -0.05700
C2029       C  0.66047150  0.82451113  0.94369545    -0.32600
C2030       C  0.63836731  0.82970316  0.96510809     0.36400
H2031       H  0.60104186  0.88833530  0.93517664     0.16800
O2032       O  0.63917807  0.88223286  0.89199567    -0.60100
H2033       H  0.67669397  0.80638613  0.94624190     0.16800
O2034       O  0.63708144  0.81115808  0.98811193    -0.60200
H2035       H  0.65441805  0.81684923  0.00089605     0.43800
H2036       H  0.62291345  0.87424036  0.87925256     0.43700
C2037       C  0.66260619  0.65640259  0.92088016    -0.05300
C2038       C  0.63719136  0.63841329  0.91539466    -0.32700
C2039       C  0.61392215  0.63454687  0.93598405     0.36500
C2040       C  0.61512410  0.64957379  0.96229637    -0.05700
C2041       C  0.64079923  0.66720837  0.96791950    -0.32600
C2042       C  0.66448190  0.67048273  0.94767630     0.36400
H2043       H  0.63538231  0.62715974  0.89509505     0.16800
O2044       O  0.58991040  0.61624800  0.93004191    -0.60100
H2045       H  0.64227056  0.67887733  0.98801918     0.16800
O2046       O  0.68910937  0.68785503  0.95425727    -0.60200
H2047       H  0.68294003  0.70749408  0.94727794     0.43800
H2048       H  0.59660488  0.59713609  0.93797441     0.43700
C2049       C  0.11671008  0.90628605  0.60740993    -0.05300
C2050       C  0.11758366  0.88913845  0.63238713    -0.32700
C2051       C  0.13980568  0.89406280  0.65395734     0.36500
C2052       C  0.16156284  0.91646378  0.65070850    -0.05700
C2053       C  0.16107331  0.93294313  0.62535593    -0.32600
C2054       C  0.13882954  0.92819124  0.60402400     0.36400
H2055       H  0.10068506  0.87220448  0.63530569     0.16800
O2056       O  0.13989388  0.87699392  0.67807673    -0.60100
H2057       H  0.17752558  0.95023556  0.62232870     0.16800
O2058       O  0.13844353  0.94561150  0.58014946    -0.60200
H2059       H  0.12230592  0.96077337  0.58398558     0.43800
H2060       H  0.15432779  0.86054867  0.67371413     0.43700
C2061       C  0.15891230  0.59674487  0.65113733    -0.05300
C2062       C  0.16287518  0.61490320  0.62731262    -0.32700
C2063       C  0.13965137  0.61735215  0.60621428     0.36500
C2064       C  0.11247288  0.60073035  0.60830682    -0.05700
C2065       C  0.10891244  0.58215969  0.63190784    -0.32600
C2066       C  0.13174995  0.58024784  0.65329627     0.36400
H2067       H  0.18378226  0.62756019  0.62532581     0.16800
O2068       O  0.14379005  0.63589150  0.58356187    -0.60100
H2069       H  0.08842368  0.56888001  0.63360514     0.16800
O2070       O  0.12771735  0.56156771  0.67585821    -0.60200
H2071       H  0.13512593  0.54233095  0.66884849     0.43800
H2072       H  0.13221430  0.65394623  0.58876018     0.43700
C2073       C  0.90598770  0.90851702  0.64905601    -0.05300
C2074       C  0.90387969  0.92563287  0.62413314    -0.32700
C2075       C  0.92758806  0.92485813  0.60364085     0.36500
C2076       C  0.95371228  0.90628563  0.60750667    -0.05700
C2077       C  0.95565599  0.88889509  0.63220672    -0.32600
C2078       C  0.93214077  0.88995684  0.65291208     0.36400
H2079       H  0.88410764  0.94020771  0.62080172     0.16800
O2080       O  0.92506722  0.94240901  0.57992410    -0.60100
H2081       H  0.97547848  0.87434300  0.63537189     0.16800
O2082       O  0.93495984  0.87266348  0.67676104    -0.60200
H2083       H  0.92430885  0.85442815  0.67169367     0.43800
H2084       H  0.93671115  0.96013500  0.58485807     0.43700
C2085       C  0.90696821  0.58505315  0.65164627    -0.05300
C2086       C  0.93564333  0.57012618  0.65350716    -0.32700
C2087       C  0.95834338  0.57364890  0.63240293     0.36500
C2088       C  0.95285191  0.59303306  0.60946327    -0.05700
C2089       C  0.92439493  0.60845867  0.60796942    -0.32600
C2090       C  0.90134256  0.60425721  0.62862377     0.36400
H2091       H  0.94004218  0.55488574  0.67083948     0.16800
O2092       O  0.98513193  0.55696849  0.63347423    -0.60100
H2093       H  0.91992653  0.62349513  0.59048223     0.16800
O2094       O  0.87377311  0.61962725  0.62658995    -0.60200
H2095       H  0.86059501  0.60817771  0.61345325     0.43800
H2096       H  0.99744883  0.56483725  0.64962114     0.43700
C2097       C  0.16269560  0.92123598  0.91975293    -0.05300
C2098       C  0.13902106  0.90146679  0.91372130    -0.32700
C2099       C  0.11577269  0.89574541  0.93388746     0.36500
C2100       C  0.11553244  0.91040954  0.96039948    -0.05700
C2101       C  0.13927626  0.93008352  0.96644708    -0.32600
C2102       C  0.16292417  0.93524001  0.94662607     0.36400
H2103       H  0.13868454  0.89010113  0.89340668     0.16800
O2104       O  0.09395069  0.87514561  0.92795305    -0.60100
H2105       H  0.13939279  0.94161984  0.98667791     0.16800
O2106       O  0.18557896  0.95468714  0.95348557    -0.60200
H2107       H  0.20179755  0.94312323  0.96379631     0.43800
H2108       H  0.08151717  0.88297501  0.91164647     0.43700
C2109       C  0.15757578  0.59408287  0.91774995    -0.05300
C2110       C  0.13303519  0.57441638  0.91679590    -0.32700
C2111       C  0.11000831  0.57498455  0.93791887     0.36500
C2112       C  0.11080324  0.59616039  0.95964947    -0.05700
C2113       C  0.13527354  0.61590775  0.96043796    -0.32600
C2114       C  0.15873453  0.61480261  0.93979874     0.36400
H2115       H  0.13225729  0.55805633  0.90013664     0.16800
O2116       O  0.08700829  0.55469130  0.93736394    -0.60100
H2117       H  0.13614022  0.63218274  0.97716728     0.16800
O2118       O  0.18251280  0.63423835  0.94117251    -0.60200
H2119       H  0.17630666  0.65020828  0.92794232     0.43800
H2120       H  0.09548664  0.53782968  0.44618573     0.43700
C2121       C  0.90352502  0.90693351  0.91936122    -0.05300
C2122       C  0.92941605  0.88838291  0.91499136    -0.32700
C2123       C  0.95358031  0.88656942  0.93525898     0.36500
C2124       C  0.95244977  0.90386468  0.96015261    -0.05700
C2125       C  0.92657952  0.92235208  0.96453022    -0.32600
C2126       C  0.90219727  0.92383321  0.94457295     0.36400
H2127       H  0.93094796  0.87522154  0.89580028     0.16800
O2128       O  0.97833211  0.86801175  0.93043831    -0.60100
H2129       H  0.92543771  0.93593531  0.98346452     0.16800
O2130       O  0.87793638  0.94297968  0.94931598    -0.60200
H2131       H  0.86300831  0.93217645  0.96128074     0.43800
H2132       H  0.97273662  0.84955596  0.93993450     0.43700
C2133       C  0.95124479  0.59071897  0.95986420    -0.05300
C2134       C  0.92451177  0.60863119  0.95897022    -0.32700
C2135       C  0.90153595  0.60428355  0.93817272     0.36500
C2136       C  0.90554851  0.58220505  0.91765061    -0.05700
C2137       C  0.93233209  0.56438835  0.91843184    -0.32600
C2138       C  0.95500793  0.56833291  0.93957579     0.36400
H2139       H  0.92149675  0.62595169  0.97447246     0.16800
O2140       O  0.87588094  0.62243820  0.93728847    -0.60100
H2141       H  0.93533344  0.54700095  0.90299322     0.16800
O2142       O  0.98020550  0.54962572  0.94098659    -0.60200
H2143       H  0.99443171  0.55600011  0.92561092     0.43800
H2144       H  0.86132228  0.61448151  0.95162182     0.43700
loop_ 
_geom_bond_atom_site_label_1 
_geom_bond_atom_site_label_2 
_geom_bond_distance 
_geom_bond_site_symmetry_2 
_ccdc_geom_bond_type 
In1           O3   2.226       .  S
In1           O4   2.276       .  S
In1          O12   2.235       .  S
In1           O6   2.238       .  S
In1           O8   2.268       .  S
In1           O9   2.250       .  S
In1          O10   2.208       .  S
In1          O13   2.245       .  S
C2            O8   1.264       .  A
C2           O10   1.258       .  A
C2           C54   1.460       .  S
O3           C11   1.258       .  A
O4           C11   1.265       .  A
C5           O12   1.261       .  A
C5            O6   1.262       .  A
C5          C528   1.467       .  S
C7            O9   1.265       .  A
C7           O13   1.262       .  A
C7          C179   1.469       .  S
C11        C1092   1.469   1_545  S
In14         O16   2.247       .  S
In14         O17   2.257       .  S
In14         O25   2.235       .  S
In14         O19   2.254       .  S
In14         O21   2.271       .  S
In14         O22   2.271       .  S
In14         O23   2.220       .  S
In14         O26   2.224       .  S
C15          O21   1.264       .  A
C15          O23   1.259       .  A
C15          C67   1.465       .  S
O16          C24   1.260       .  A
O17          C24   1.263       .  A
C18          O25   1.262       .  A
C18          O19   1.265       .  A
C18         C513   1.484       .  S
C20          O22   1.265       .  A
C20          O26   1.260       .  A
C20        C1083   1.468       .  S
C24         C196   1.468       .  S
In27         O29   2.244       .  S
In27         O30   2.243       .  S
In27         O38   2.236       .  S
In27         O32   2.233       .  S
In27         O34   2.278       .  S
In27         O35   2.277       .  S
In27         O36   2.215       .  S
In27         O39   2.202       .  S
C28          O34   1.264       .  A
C28          O36   1.257       .  A
C28          C80   1.465       .  S
O29          C37   1.262       .  A
O30          C37   1.264       .  A
C31          O38   1.262       .  A
C31          O32   1.262       .  A
C31         C501   1.466       .  S
C33          O35   1.265       .  A
C33          O39   1.257       .  A
C33        C1122   1.461   1_545  S
C37         C209   1.466       .  S
In40         O42   2.203       .  S
In40         O43   2.271       .  S
In40         O51   2.236       .  S
In40         O45   2.242       .  S
In40         O47   2.272       .  S
In40         O48   2.246       .  S
In40         O49   2.236       .  S
In40         O52   2.234       .  S
C41          O47   1.262       .  A
C41          O49   1.259       .  A
C41          C93   1.469       .  S
O42          C50   1.259       .  A
O43          C50   1.264       .  A
C44          O51   1.262       .  A
C44          O45   1.264       .  A
C44         C489   1.481       .  S
C46          O48   1.262       .  A
C46          O52   1.259       .  A
C46         C218   1.459       .  S
C50        C1105   1.461       .  S
In53         O55   2.235       .  S
In53         O56   2.246       .  S
In53         O64   2.241       .  S
In53         O58   2.240       .  S
In53         O60   2.270       .  S
In53         O61   2.277       .  S
In53         O62   2.209       .  S
In53         O65   2.221       .  S
C54          O60   1.263       .  A
C54          O62   1.257       .  A
O55          C63   1.261       .  A
O56          C63   1.264       .  A
C57          O64   1.262       .  A
C57          O58   1.262       .  A
C57         C477   1.472       .  S
C59          O61   1.265       .  A
C59          O65   1.258       .  A
C59        C1148   1.468   1_545  S
C63         C261   1.463       .  S
In66         O68   2.219       .  S
In66         O69   2.274       .  S
In66         O77   2.236       .  S
In66         O71   2.243       .  S
In66         O73   2.271       .  S
In66         O74   2.248       .  S
In66         O75   2.221       .  S
In66         O78   2.251       .  S
C67          O73   1.265       .  A
C67          O75   1.259       .  A
O68          C76   1.260       .  A
O69          C76   1.266       .  A
C70          O77   1.263       .  A
C70          O71   1.265       .  A
C70         C465   1.481       .  S
C72          O74   1.263       .  A
C72          O78   1.260       .  A
C72         C270   1.468       .  S
C76        C1131   1.468       .  S
In79         O81   2.219       .  S
In79         O82   2.279       .  S
In79         O90   2.246       .  S
In79         O84   2.239       .  S
In79         O86   2.281       .  S
In79         O87   2.255       .  S
In79         O88   2.214       .  S
In79         O91   2.253       .  S
C80          O86   1.265       .  A
C80          O88   1.257       .  A
O81          C89   1.258       .  A
O82          C89   1.266       .  A
C83          O90   1.263       .  A
C83          O84   1.263       .  A
C83         C453   1.474       .  S
C85          O87   1.263       .  A
C85          O91   1.261       .  A
C85         C231   1.472       .  S
C89        C1170   1.469   1_545  S
In92         O94   2.237       .  S
In92         O95   2.253       .  S
In92        O103   2.233       .  S
In92         O97   2.262       .  S
In92         O99   2.275       .  S
In92        O100   2.276       .  S
In92        O101   2.233       .  S
In92        O104   2.223       .  S
C93          O99   1.264       .  A
C93         O101   1.258       .  A
O94         C102   1.259       .  A
O95         C102   1.263       .  A
C96         O103   1.263       .  A
C96          O97   1.265       .  A
C96         C444   1.484       .  S
C98         O100   1.264       .  A
C98         O104   1.261       .  A
C98        C1161   1.469       .  S
C102        C248   1.464       .  S
N105        C110   1.352       .  A
N105        C109   1.353       .  A
N105        H137   1.041   1_655  S
N106        C113   1.351       .  A
N106        C114   1.350       .  A
N107        C112   1.354       .  A
N107        C111   1.353       .  A
N107        H138   1.040       .  S
N108        C115   1.351       .  A
N108        C116   1.351       .  A
C109        C117   1.386       .  A
C109        C661   1.414   1_554  A
C110        C126   1.413       .  A
C110        C118   1.386       .  A
C111        C119   1.387       .  A
C111        C664   1.418   1_554  A
C112        C127   1.417       .  A
C112        C120   1.387       .  A
C113        C125   1.411   1_455  A
C113        C121   1.385       .  A
C114        C128   1.415       .  A
C114        C122   1.387       .  A
C115        C123   1.386       .  A
C115        C126   1.412   1_455  A
C116        C124   1.387       .  A
C116        C127   1.413       .  A
C117        C118   1.377       .  A
C117        H129   1.082       .  S
C118        H130   1.082       .  S
C119        C120   1.379       .  A
C119        H131   1.082       .  S
C120        H132   1.082       .  S
C121        C122   1.375       .  A
C121        H133   1.082       .  S
C122        H134   1.082       .  S
C123        C124   1.375       .  A
C123        H135   1.082       .  S
C124        H136   1.082       .  S
C125        C516   1.494       .  S
C125        C645   1.414       .  A
C126        C468   1.492       .  S
C127        C441   1.493       .  S
C128        C492   1.493       .  S
C128        C647   1.418       .  A
N139        C144   1.352       .  A
N139        C143   1.351       .  A
N139        H171   1.042   1_655  S
N140        C147   1.349       .  A
N140        C148   1.350       .  A
N141        C146   1.351       .  A
N141        C145   1.352       .  A
N141        H172   1.042       .  S
N142        C149   1.347       .  A
N142        C150   1.348       .  A
C143        C151   1.388       .  A
C143        C159   1.413       .  A
C144        C152   1.386       .  A
C144        C696   1.411   1_554  A
C145        C153   1.387       .  A
C145        C162   1.413       .  A
C146        C154   1.386       .  A
C146        C697   1.411   1_554  A
C147        C159   1.411   1_455  A
C147        C155   1.386       .  A
C148        C162   1.412       .  A
C148        C156   1.386       .  A
C149        C157   1.386       .  A
C149        C160   1.407   1_455  A
C150        C158   1.386       .  A
C150        C161   1.407       .  A
C151        C152   1.377       .  A
C151        H163   1.082       .  S
C152        H164   1.082       .  S
C153        C154   1.377       .  A
C153        H165   1.082       .  S
C154        H166   1.082       .  S
C155        C156   1.375       .  A
C155        H167   1.082   1_455  S
C156        H168   1.082       .  S
C157        C158   1.374       .  A
C157        H169   1.082   1_455  S
C158        H170   1.082       .  S
C159        C480   1.488       .  S
C160        C525   1.482       .  S
C160        C680   1.412       .  A
C161        C504   1.481       .  S
C161        C682   1.410       .  A
C162        C456   1.492       .  S
In173       O175   2.231       .  S
In173       O176   2.267       .  S
In173       O184   2.233       .  S
In173       O178   2.247       .  S
In173       O180   2.263       .  S
In173       O181   2.257       .  S
In173       O182   2.215       .  S
In173       O185   2.246       .  S
C174        O180   1.265       .  A
C174        O182   1.258       .  A
C174        C252   1.460       .  S
O175        C183   1.260       .  A
O176        C183   1.266       .  A
C177        O184   1.263       .  A
C177        O178   1.265       .  A
C177        C429   1.484       .  S
C179        O181   1.264       .  A
C179        O185   1.260       .  A
C183        C192   1.470       .  S
In186       O188   2.247       .  S
In186       O189   2.250       .  S
In186       O197   2.230       .  S
In186       O191   2.254       .  S
In186       O193   2.270       .  S
In186       O194   2.264       .  S
In186       O195   2.217       .  S
In186       O198   2.234       .  S
C187        O193   1.265       .  A
C187        O195   1.258       .  A
C187        C265   1.463       .  S
O188        C196   1.260       .  A
O189        C196   1.263       .  A
C190        O197   1.262       .  A
C190        O191   1.265       .  A
C190        C420   1.481       .  S
C192        O194   1.265       .  A
C192        O198   1.261       .  A
In199       O201   2.238       .  S
In199       O202   2.258       .  S
In199       O210   2.248       .  S
In199       O204   2.239       .  S
In199       O206   2.265       .  S
In199       O207   2.272       .  S
In199       O208   2.230       .  S
In199       O211   2.216       .  S
C200        O206   1.264       .  A
C200        O208   1.260       .  A
C200        C226   1.468       .  S
O201        C209   1.259       .  A
O202        C209   1.264       .  A
C203        O210   1.264       .  A
C203        O204   1.263       .  A
C203        C408   1.483       .  S
C205        O207   1.266       .  A
C205        O211   1.259       .  A
C205        C222   1.466       .  S
In212       O214   2.222       .  S
In212       O215   2.266       .  S
In212       O223   2.220       .  S
In212       O217   2.252       .  S
In212       O219   2.274       .  S
In212       O220   2.243       .  S
In212       O221   2.227       .  S
In212       O224   2.239       .  S
C213        O219   1.263       .  A
C213        O221   1.259       .  A
C213        C239   1.467       .  S
O214        C222   1.261       .  A
O215        C222   1.264       .  A
C216        O223   1.261       .  A
C216        O217   1.264       .  A
C216        C396   1.476       .  S
C218        O220   1.261       .  A
C218        O224   1.259       .  A
In225       O227   2.231       .  S
In225       O228   2.266       .  S
In225       O236   2.243       .  S
In225       O230   2.264       .  S
In225       O232   2.273       .  S
In225       O233   2.260       .  S
In225       O234   2.232       .  S
In225       O237   2.251       .  S
C226        O232   1.265       .  A
C226        O234   1.259       .  A
O227        C235   1.261       .  A
O228        C235   1.265       .  A
C229        O236   1.262       .  A
C229        O230   1.265       .  A
C229        C381   1.489       .  S
C231        O233   1.263       .  A
C231        O237   1.260       .  A
C235        C244   1.469       .  S
In238       O240   2.245       .  S
In238       O241   2.247       .  S
In238       O249   2.239       .  S
In238       O243   2.243       .  S
In238       O245   2.272       .  S
In238       O246   2.266       .  S
In238       O247   2.222       .  S
In238       O250   2.226       .  S
C239        O245   1.265       .  A
C239        O247   1.259       .  A
O240        C248   1.260       .  A
O241        C248   1.263       .  A
C242        O249   1.263       .  A
C242        O243   1.265       .  A
C242        C369   1.481       .  S
C244        O246   1.266       .  A
C244        O250   1.261       .  A
In251       O253   2.244       .  S
In251       O254   2.245       .  S
In251       O262   2.219       .  S
In251       O256   2.249       .  S
In251       O258   2.262       .  S
In251       O259   2.268       .  S
In251       O260   2.217       .  S
In251       O263   2.219       .  S
C252        O258   1.263       .  A
C252        O260   1.258       .  A
O253        C261   1.259       .  A
O254        C261   1.261       .  A
C255        O262   1.262       .  A
C255        O256   1.263       .  A
C255        C357   1.476       .  S
C257        O259   1.264       .  A
C257        O263   1.260       .  A
C257        C274   1.465       .  S
In264       O266   2.218       .  S
In264       O267   2.272       .  S
In264       O275   2.236       .  S
In264       O269   2.238       .  S
In264       O271   2.265       .  S
In264       O272   2.262       .  S
In264       O273   2.223       .  S
In264       O276   2.239       .  S
C265        O271   1.262       .  A
C265        O273   1.259       .  A
O266        C274   1.259       .  A
O267        C274   1.265       .  A
C268        O275   1.263       .  A
C268        O269   1.263       .  A
C268        C345   1.479       .  S
C270        O272   1.264       .  A
C270        O276   1.258       .  A
N277        C282   1.352       .  A
N277        C281   1.355       .  A
N277        H309   1.041       .  S
N278        C285   1.351       .  A
N278        C286   1.349       .  A
N279        C284   1.353       .  A
N279        C283   1.351       .  A
N279        H310   1.041       .  S
N280        C287   1.352       .  A
N280        C288   1.353       .  A
C281        C289   1.386       .  A
C281        C297   1.416       .  A
C282        C290   1.388       .  A
C282        C834   1.416   1_554  A
C283        C291   1.388       .  A
C283        C300   1.415       .  A
C284        C292   1.386       .  A
C284        C835   1.415   1_554  A
C285        C297   1.412       .  A
C285        C293   1.386       .  A
C286        C300   1.411       .  A
C286        C294   1.387       .  A
C287        C295   1.387       .  A
C287        C298   1.416       .  A
C288        C296   1.385       .  A
C288        C299   1.414       .  A
C289        C290   1.379       .  A
C289        H301   1.082       .  S
C290        H302   1.082       .  S
C291        C292   1.378       .  A
C291        H303   1.082       .  S
C292        H304   1.082       .  S
C293        C294   1.374       .  A
C293        H305   1.082       .  S
C294        H306   1.082       .  S
C295        C296   1.375       .  A
C295        H307   1.082       .  S
C296        H308   1.082       .  S
C297        C384   1.500       .  S
C298        C405   1.495       .  S
C298        C818   1.416       .  A
C299        C432   1.498       .  S
C299        C820   1.415       .  A
C300        C360   1.486       .  S
N311        C316   1.352       .  A
N311        C315   1.354       .  A
N311        H343   1.041       .  S
N312        C319   1.351       .  A
N312        C320   1.350       .  A
N313        C318   1.352       .  A
N313        C317   1.351       .  A
N313        H344   1.041       .  S
N314        C321   1.350       .  A
N314        C322   1.351       .  A
C315        C323   1.387       .  A
C315        C331   1.415       .  A
C316        C324   1.386       .  A
C316        C868   1.413   1_554  A
C317        C325   1.388       .  A
C317        C334   1.414       .  A
C318        C326   1.385       .  A
C318        C869   1.412   1_554  A
C319        C331   1.413       .  A
C319        C327   1.386       .  A
C320        C334   1.413       .  A
C320        C328   1.387       .  A
C321        C329   1.386       .  A
C321        C332   1.411       .  A
C322        C330   1.386       .  A
C322        C333   1.412       .  A
C323        C324   1.375       .  A
C323        H335   1.082       .  S
C324        H336   1.082       .  S
C325        C326   1.377       .  A
C325        H337   1.082       .  S
C326        H338   1.082       .  S
C327        C328   1.376       .  A
C327        H339   1.082       .  S
C328        H340   1.082       .  S
C329        C330   1.371       .  A
C329        H341   1.082       .  S
C330        H342   1.082       .  S
C331        C372   1.492       .  S
C332        C393   1.487       .  S
C332        C852   1.414       .  A
C333        C417   1.490       .  S
C333        C854   1.411       .  A
C334        C348   1.488       .  S
C345        C346   1.404       .  A
C345        C350   1.411       .  A
C346        C347   1.398       .  A
C346        H351   1.083       .  S
C347        C348   1.408       .  A
C347        O352   1.373       .  S
C348        C349   1.403       .  A
C349        C350   1.402       .  A
C349        H353   1.084       .  S
C350        O354   1.372       .  S
O352        H356   0.992       .  S
O354        H355   0.992       .  S
C357        C358   1.404       .  A
C357        C362   1.411       .  A
C358        C359   1.394       .  A
C358        H363   1.083       .  S
C359        C360   1.406       .  A
C359        O364   1.372       .  S
C360        C361   1.405       .  A
C361        C362   1.402       .  A
C361        H365   1.084       .  S
C362        O366   1.372       .  S
O364        H368   0.992       .  S
O366        H367   0.992       .  S
C369        C370   1.404       .  A
C369        C374   1.412       .  A
C370        C371   1.400       .  A
C370        H375   1.083       .  S
C371        C372   1.408       .  A
C371        O376   1.371       .  S
C372        C373   1.404       .  A
C373        C374   1.401       .  A
C373        H377   1.084       .  S
C374        O378   1.372       .  S
O376        H380   0.992       .  S
O378        H379   0.992       .  S
C381        C382   1.407       .  A
C381        C386   1.411       .  A
C382        C383   1.402       .  A
C382        H387   1.083       .  S
C383        C384   1.410       .  A
C383        O388   1.372       .  S
C384        C385   1.407       .  A
C385        C386   1.404       .  A
C385        H389   1.083       .  S
C386        O390   1.371       .  S
O388        H392   0.992       .  S
O390        H391   0.992       .  S
C393        C394   1.401       .  A
C393        C398   1.409       .  A
C394        C395   1.395       .  A
C394        H399   1.084       .  S
C395        C396   1.410       .  A
C395        O400   1.372       .  S
C396        C397   1.405       .  A
C397        C398   1.402       .  A
C397        H401   1.083       .  S
C398        O402   1.372       .  S
O400        H404   0.992       .  S
O402        H403   0.991       .  S
C405        C406   1.405       .  A
C405        C410   1.410       .  A
C406        C407   1.399       .  A
C406        H411   1.084       .  S
C407        C408   1.410       .  A
C407        O412   1.371       .  S
C408        C409   1.406       .  A
C409        C410   1.403       .  A
C409        H413   1.083       .  S
C410        O414   1.373       .  S
O412        H416   0.992       .  S
O414        H415   0.992       .  S
C417        C418   1.405       .  A
C417        C422   1.408       .  A
C418        C419   1.403       .  A
C418        H423   1.084       .  S
C419        C420   1.410       .  A
C419        O424   1.371       .  S
C420        C421   1.404       .  A
C421        C422   1.398       .  A
C421        H425   1.084       .  S
C422        O426   1.372       .  S
O424        H428   0.992       .  S
O426        H427   0.992       .  S
C429        C430   1.406       .  A
C429        C434   1.412       .  A
C430        C431   1.402       .  A
C430        H435   1.083       .  S
C431        C432   1.412       .  A
C431        O436   1.372       .  S
C432        C433   1.405       .  A
C433        C434   1.400       .  A
C433        H437   1.084       .  S
C434        O438   1.372       .  S
O436        H440   0.992       .  S
O438        H439   0.992       .  S
C441        C442   1.407       .  A
C441        C446   1.407       .  A
C442        C443   1.406       .  A
C442        H447   1.084       .  S
C443        C444   1.412       .  A
C443        O448   1.372       .  S
C444        C445   1.404       .  A
C445        C446   1.397       .  A
C445        H449   1.083       .  S
C446        O450   1.372       .  S
O448        H452   0.992       .  S
O450        H451   0.992       .  S
C453        C454   1.403       .  A
C453        C458   1.408       .  A
C454        C455   1.402       .  A
C454        H459   1.084       .  S
C455        C456   1.411       .  A
C455        O460   1.372       .  S
C456        C457   1.404       .  A
C457        C458   1.399       .  A
C457        H461   1.084       .  S
C458        O462   1.372       .  S
O460        H464   0.992       .  S
O462        H463   0.992       .  S
C465        C466   1.405       .  A
C465        C470   1.410       .  A
C466        C467   1.399       .  A
C466        H471   1.084       .  S
C467        C468   1.410       .  A
C467        O472   1.372       .  S
C468        C469   1.404       .  A
C469        C470   1.401       .  A
C469        H473   1.083       .  S
C470        O474   1.371       .  S
O472        H476   0.992       .  S
O474        H475   0.992       .  S
C477        C478   1.402       .  A
C477        C482   1.408       .  A
C478        C479   1.400       .  A
C478        H483   1.084       .  S
C479        C480   1.409       .  A
C479        O484   1.373       .  S
C480        C481   1.404       .  A
C481        C482   1.400       .  A
C481        H485   1.084       .  S
C482        O486   1.372       .  S
O484        H488   0.992       .  S
O486        H487   0.992       .  S
C489        C490   1.405       .  A
C489        C494   1.411       .  A
C490        C491   1.403       .  A
C490        H495   1.083       .  S
C491        C492   1.410       .  A
C491        O496   1.373       .  S
C492        C493   1.404       .  A
C493        C494   1.399       .  A
C493        H497   1.084       .  S
C494        O498   1.371       .  S
O496        H500   0.992       .  S
O498        H499   0.992       .  S
C501        C502   1.402       .  A
C501        C506   1.405       .  A
C502        C503   1.399       .  A
C502        H507   1.084       .  S
C503        C504   1.408       .  A
C503        O508   1.372       .  S
C504        C505   1.403       .  A
C505        C506   1.397       .  A
C505        H509   1.084       .  S
C506        O510   1.371       .  S
O508       H1048   0.992       .  S
O510        H511   0.991       .  S
H512       O1044   0.992       .  S
C513        C514   1.406       .  A
C513        C518   1.412       .  A
C514        C515   1.403       .  A
C514        H519   1.083       .  S
C515        C516   1.410       .  A
C515        O520   1.371       .  S
C516        C517   1.403       .  A
C517        C518   1.400       .  A
C517        H521   1.084       .  S
C518        O522   1.372       .  S
O520        H524   0.991       .  S
O522        H523   0.992       .  S
C525        C526   1.402       .  A
C525        C530   1.408       .  A
C526        C527   1.399       .  A
C526        H531   1.084       .  S
C527        C528   1.406       .  A
C527        O532   1.372       .  S
C528        C529   1.401       .  A
C529        C530   1.399       .  A
C529        H533   1.084       .  S
C530        O534   1.373       .  S
O532        H536   0.992       .  S
O534        H535   0.992       .  S
In537       O539   2.226       .  S
In537       O540   2.274       .  S
In537       O548   2.235       .  S
In537       O542   2.237       .  S
In537       O544   2.268       .  S
In537       O545   2.250       .  S
In537       O546   2.207       .  S
In537       O549   2.246       .  S
C538        O544   1.264       .  A
C538        O546   1.258       .  A
C538        C590   1.460       .  S
O539        C547   1.258       .  A
O540        C547   1.265       .  A
C541        O548   1.261       .  A
C541        O542   1.262       .  A
C541       C1064   1.466       .  S
C543        O545   1.265       .  A
C543        O549   1.262       .  A
C543        C715   1.469       .  S
C547       C1628   1.468   1_545  S
In550       O552   2.247       .  S
In550       O553   2.257       .  S
In550       O561   2.236       .  S
In550       O555   2.253       .  S
In550       O557   2.272       .  S
In550       O558   2.269       .  S
In550       O559   2.220       .  S
In550       O562   2.224       .  S
C551        O557   1.264       .  A
C551        O559   1.259       .  A
C551        C603   1.465       .  S
O552        C560   1.260       .  A
O553        C560   1.263       .  A
C554        O561   1.262       .  A
C554        O555   1.265       .  A
C554       C1049   1.484       .  S
C556        O558   1.265       .  A
C556        O562   1.260       .  A
C556       C1619   1.468       .  S
C560        C732   1.468       .  S
In563       O565   2.245       .  S
In563       O566   2.242       .  S
In563       O574   2.237       .  S
In563       O568   2.234       .  S
In563       O570   2.278       .  S
In563       O571   2.277       .  S
In563       O572   2.214       .  S
In563       O575   2.202       .  S
C564        O570   1.264       .  A
C564        O572   1.258       .  A
C564        C616   1.466       .  S
O565        C573   1.262       .  A
O566        C573   1.264       .  A
C567        O574   1.262       .  A
C567        O568   1.261       .  A
C567       C1037   1.466       .  S
C569        O571   1.265       .  A
C569        O575   1.256       .  A
C569       C1658   1.461   1_545  S
C573        C745   1.466       .  S
In576       O578   2.204       .  S
In576       O579   2.271       .  S
In576       O587   2.239       .  S
In576       O581   2.242       .  S
In576       O583   2.272       .  S
In576       O584   2.247       .  S
In576       O585   2.235       .  S
In576       O588   2.233       .  S
C577        O583   1.263       .  A
C577        O585   1.259       .  A
C577        C629   1.469       .  S
O578        C586   1.259       .  A
O579        C586   1.264       .  A
C580        O587   1.263       .  A
C580        O581   1.264       .  A
C580       C1025   1.482       .  S
C582        O584   1.262       .  A
C582        O588   1.259       .  A
C582        C754   1.460       .  S
C586       C1641   1.461       .  S
In589       O591   2.234       .  S
In589       O592   2.246       .  S
In589       O600   2.241       .  S
In589       O594   2.240       .  S
In589       O596   2.271       .  S
In589       O597   2.278       .  S
In589       O598   2.209       .  S
In589       O601   2.221       .  S
C590        O596   1.263       .  A
C590        O598   1.257       .  A
O591        C599   1.261       .  A
O592        C599   1.264       .  A
C593        O600   1.262       .  A
C593        O594   1.262       .  A
C593       C1013   1.473       .  S
C595        O597   1.265       .  A
C595        O601   1.258       .  A
C595       C1684   1.468   1_545  S
C599        C797   1.462       .  S
In602       O604   2.219       .  S
In602       O605   2.274       .  S
In602       O613   2.236       .  S
In602       O607   2.243       .  S
In602       O609   2.272       .  S
In602       O610   2.248       .  S
In602       O611   2.220       .  S
In602       O614   2.253       .  S
C603        O609   1.265       .  A
C603        O611   1.259       .  A
O604        C612   1.260       .  A
O605        C612   1.266       .  A
C606        O613   1.263       .  A
C606        O607   1.265       .  A
C606       C1001   1.481       .  S
C608        O610   1.263       .  A
C608        O614   1.260       .  A
C608        C806   1.468       .  S
C612       C1667   1.468       .  S
In615       O617   2.220       .  S
In615       O618   2.279       .  S
In615       O626   2.245       .  S
In615       O620   2.239       .  S
In615       O622   2.282       .  S
In615       O623   2.253       .  S
In615       O624   2.214       .  S
In615       O627   2.253       .  S
C616        O622   1.265       .  A
C616        O624   1.257       .  A
O617        C625   1.258       .  A
O618        C625   1.266       .  A
C619        O626   1.263       .  A
C619        O620   1.264       .  A
C619        C989   1.474       .  S
C621        O623   1.263       .  A
C621        O627   1.261       .  A
C621        C767   1.471       .  S
C625       C1706   1.469   1_545  S
In628       O630   2.237       .  S
In628       O631   2.254       .  S
In628       O639   2.234       .  S
In628       O633   2.262       .  S
In628       O635   2.275       .  S
In628       O636   2.275       .  S
In628       O637   2.232       .  S
In628       O640   2.224       .  S
C629        O635   1.264       .  A
C629        O637   1.258       .  A
O630        C638   1.259       .  A
O631        C638   1.263       .  A
C632        O639   1.263       .  A
C632        O633   1.265       .  A
C632        C980   1.485       .  S
C634        O636   1.264       .  A
C634        O640   1.261       .  A
C634       C1697   1.469       .  S
C638        C784   1.464       .  S
N641        C646   1.352       .  A
N641        C645   1.353       .  A
N641        H673   1.041   1_655  S
N642        C649   1.351       .  A
N642        C650   1.351       .  A
N643        C648   1.354       .  A
N643        C647   1.352       .  A
N643        H674   1.040       .  S
N644        C651   1.351       .  A
N644        C652   1.351       .  A
C645        C653   1.386       .  A
C646        C662   1.413       .  A
C646        C654   1.386       .  A
C647        C655   1.388       .  A
C648        C663   1.417       .  A
C648        C656   1.387       .  A
C649        C661   1.412   1_455  A
C649        C657   1.385       .  A
C650        C664   1.415       .  A
C650        C658   1.387       .  A
C651        C659   1.386       .  A
C651        C662   1.412   1_455  A
C652        C660   1.386       .  A
C652        C663   1.413       .  A
C653        C654   1.377       .  A
C653        H665   1.082       .  S
C654        H666   1.082       .  S
C655        C656   1.380       .  A
C655        H667   1.082       .  S
C656        H668   1.082       .  S
C657        C658   1.375       .  A
C657        H669   1.082       .  S
C658        H670   1.082       .  S
C659        C660   1.375       .  A
C659        H671   1.082       .  S
C660        H672   1.082       .  S
C661       C1052   1.493       .  S
C662       C1004   1.491       .  S
C663        C977   1.493       .  S
C664       C1028   1.494       .  S
N675        C680   1.352       .  A
N675        C679   1.351       .  A
N675        H707   1.042   1_655  S
N676        C683   1.349       .  A
N676        C684   1.350       .  A
N677        C682   1.351       .  A
N677        C681   1.351       .  A
N677        H708   1.042       .  S
N678        C685   1.348       .  A
N678        C686   1.348       .  A
C679        C687   1.388       .  A
C679        C695   1.414       .  A
C680        C688   1.386       .  A
C681        C689   1.387       .  A
C681        C698   1.412       .  A
C682        C690   1.386       .  A
C683        C695   1.411   1_455  A
C683        C691   1.386       .  A
C684        C698   1.412       .  A
C684        C692   1.386       .  A
C685        C693   1.386       .  A
C685        C696   1.407   1_455  A
C686        C694   1.386       .  A
C686        C697   1.407       .  A
C687        C688   1.377       .  A
C687        H699   1.082       .  S
C688        H700   1.082       .  S
C689        C690   1.377       .  A
C689        H701   1.082       .  S
C690        H702   1.082       .  S
C691        C692   1.375       .  A
C691        H703   1.082       .  S
C692        H704   1.082       .  S
C693        C694   1.374       .  A
C693        H705   1.082   1_455  S
C694        H706   1.082       .  S
C695       C1016   1.488       .  S
C696       C1061   1.481       .  S
C697       C1040   1.482       .  S
C698        C992   1.491       .  S
In709       O711   2.231       .  S
In709       O712   2.266       .  S
In709       O720   2.234       .  S
In709       O714   2.247       .  S
In709       O716   2.263       .  S
In709       O717   2.258       .  S
In709       O718   2.214       .  S
In709       O721   2.246       .  S
C710        O716   1.265       .  A
C710        O718   1.258       .  A
C710        C788   1.460       .  S
O711        C719   1.260       .  A
O712        C719   1.266       .  A
C713        O720   1.263       .  A
C713        O714   1.265       .  A
C713        C965   1.485       .  S
C715        O717   1.264       .  A
C715        O721   1.260       .  A
C719        C728   1.469       .  S
In722       O724   2.247       .  S
In722       O725   2.250       .  S
In722       O733   2.231       .  S
In722       O727   2.255       .  S
In722       O729   2.269       .  S
In722       O730   2.262       .  S
In722       O731   2.217       .  S
In722       O734   2.234       .  S
C723        O729   1.265       .  A
C723        O731   1.258       .  A
C723        C801   1.463       .  S
O724        C732   1.260       .  A
O725        C732   1.263       .  A
C726        O733   1.262       .  A
C726        O727   1.265       .  A
C726        C956   1.481       .  S
C728        O730   1.265       .  A
C728        O734   1.261       .  A
In735       O737   2.238       .  S
In735       O738   2.259       .  S
In735       O746   2.248       .  S
In735       O740   2.242       .  S
In735       O742   2.266       .  S
In735       O743   2.272       .  S
In735       O744   2.231       .  S
In735       O747   2.217       .  S
C736        O742   1.264       .  A
C736        O744   1.260       .  A
C736        C762   1.469       .  S
O737        C745   1.259       .  A
O738        C745   1.264       .  A
C739        O746   1.264       .  A
C739        O740   1.264       .  A
C739        C944   1.483       .  S
C741        O743   1.266       .  A
C741        O747   1.259       .  A
C741        C758   1.466       .  S
In748       O750   2.222       .  S
In748       O751   2.266       .  S
In748       O759   2.219       .  S
In748       O753   2.251       .  S
In748       O755   2.272       .  S
In748       O756   2.242       .  S
In748       O757   2.227       .  S
In748       O760   2.240       .  S
C749        O755   1.263       .  A
C749        O757   1.259       .  A
C749        C775   1.466       .  S
O750        C758   1.261       .  A
O751        C758   1.264       .  A
C752        O759   1.261       .  A
C752        O753   1.264       .  A
C752        C932   1.475       .  S
C754        O756   1.261       .  A
C754        O760   1.258       .  A
In761       O763   2.231       .  S
In761       O764   2.266       .  S
In761       O772   2.243       .  S
In761       O766   2.264       .  S
In761       O768   2.273       .  S
In761       O769   2.261       .  S
In761       O770   2.233       .  S
In761       O773   2.250       .  S
C762        O768   1.264       .  A
C762        O770   1.259       .  A
O763        C771   1.261       .  A
O764        C771   1.265       .  A
C765        O772   1.262       .  A
C765        O766   1.265       .  A
C765        C917   1.489       .  S
C767        O769   1.263       .  A
C767        O773   1.260       .  A
C771        C780   1.468       .  S
In774       O776   2.245       .  S
In774       O777   2.246       .  S
In774       O785   2.237       .  S
In774       O779   2.244       .  S
In774       O781   2.270       .  S
In774       O782   2.265       .  S
In774       O783   2.223       .  S
In774       O786   2.226       .  S
C775        O781   1.265       .  A
C775        O783   1.259       .  A
O776        C784   1.260       .  A
O777        C784   1.263       .  A
C778        O785   1.263       .  A
C778        O779   1.265       .  A
C778        C905   1.481       .  S
C780        O782   1.266       .  A
C780        O786   1.261       .  A
In787       O789   2.245       .  S
In787       O790   2.244       .  S
In787       O798   2.219       .  S
In787       O792   2.250       .  S
In787       O794   2.262       .  S
In787       O795   2.268       .  S
In787       O796   2.217       .  S
In787       O799   2.219       .  S
C788        O794   1.263       .  A
C788        O796   1.258       .  A
O789        C797   1.259       .  A
O790        C797   1.261       .  A
C791        O798   1.262       .  A
C791        O792   1.264       .  A
C791        C893   1.477       .  S
C793        O795   1.264       .  A
C793        O799   1.260       .  A
C793        C810   1.465       .  S
In800       O802   2.217       .  S
In800       O803   2.272       .  S
In800       O811   2.237       .  S
In800       O805   2.239       .  S
In800       O807   2.264       .  S
In800       O808   2.263       .  S
In800       O809   2.224       .  S
In800       O812   2.238       .  S
C801        O807   1.262       .  A
C801        O809   1.259       .  A
O802        C810   1.259       .  A
O803        C810   1.265       .  A
C804        O811   1.263       .  A
C804        O805   1.262       .  A
C804        C881   1.479       .  S
C806        O808   1.264       .  A
C806        O812   1.258       .  A
N813        C818   1.351       .  A
N813        C817   1.355       .  A
N813        H845   1.041       .  S
N814        C821   1.351       .  A
N814        C822   1.349       .  A
N815        C820   1.353       .  A
N815        C819   1.351       .  A
N815        H846   1.041       .  S
N816        C823   1.352       .  A
N816        C824   1.353       .  A
C817        C825   1.385       .  A
C817        C833   1.416       .  A
C818        C826   1.388       .  A
C819        C827   1.388       .  A
C819        C836   1.416       .  A
C820        C828   1.386       .  A
C821        C833   1.412       .  A
C821        C829   1.386       .  A
C822        C836   1.412       .  A
C822        C830   1.387       .  A
C823        C831   1.387       .  A
C823        C834   1.415       .  A
C824        C832   1.385       .  A
C824        C835   1.415       .  A
C825        C826   1.379       .  A
C825        H837   1.082       .  S
C826        H838   1.082       .  S
C827        C828   1.378       .  A
C827        H839   1.082       .  S
C828        H840   1.082       .  S
C829        C830   1.374       .  A
C829        H841   1.082       .  S
C830        H842   1.082       .  S
C831        C832   1.375       .  A
C831        H843   1.082       .  S
C832        H844   1.082       .  S
C833        C920   1.499       .  S
C834        C941   1.495       .  S
C835        C968   1.499       .  S
C836        C896   1.486       .  S
N847        C852   1.352       .  A
N847        C851   1.354       .  A
N847        H879   1.042       .  S
N848        C855   1.350       .  A
N848        C856   1.350       .  A
N849        C854   1.352       .  A
N849        C853   1.351       .  A
N849        H880   1.042       .  S
N850        C857   1.350       .  A
N850        C858   1.351       .  A
C851        C859   1.387       .  A
C851        C867   1.415       .  A
C852        C860   1.386       .  A
C853        C861   1.387       .  A
C853        C870   1.414       .  A
C854        C862   1.385       .  A
C855        C867   1.412       .  A
C855        C863   1.386       .  A
C856        C870   1.413       .  A
C856        C864   1.387       .  A
C857        C865   1.386       .  A
C857        C868   1.411       .  A
C858        C866   1.386       .  A
C858        C869   1.412       .  A
C859        C860   1.375       .  A
C859        H871   1.082       .  S
C860        H872   1.082       .  S
C861        C862   1.377       .  A
C861        H873   1.082       .  S
C862        H874   1.082       .  S
C863        C864   1.376       .  A
C863        H875   1.082       .  S
C864        H876   1.082       .  S
C865        C866   1.371       .  A
C865        H877   1.082       .  S
C866        H878   1.082       .  S
C867        C908   1.492       .  S
C868        C929   1.486       .  S
C869        C953   1.490       .  S
C870        C884   1.487       .  S
C881        C882   1.404       .  A
C881        C886   1.412       .  A
C882        C883   1.398       .  A
C882        H887   1.083       .  S
C883        C884   1.407       .  A
C883        O888   1.373       .  S
C884        C885   1.403       .  A
C885        C886   1.401       .  A
C885        H889   1.084       .  S
C886        O890   1.372       .  S
O888        H892   0.992       .  S
O890        H891   0.992       .  S
C893        C894   1.404       .  A
C893        C898   1.411       .  A
C894        C895   1.394       .  A
C894        H899   1.083       .  S
C895        C896   1.406       .  A
C895        O900   1.372       .  S
C896        C897   1.405       .  A
C897        C898   1.401       .  A
C897        H901   1.084       .  S
C898        O902   1.372       .  S
O900        H904   0.992       .  S
O902        H903   0.991       .  S
C905        C906   1.405       .  A
C905        C910   1.411       .  A
C906        C907   1.400       .  A
C906        H911   1.083       .  S
C907        C908   1.409       .  A
C907        O912   1.372       .  S
C908        C909   1.403       .  A
C909        C910   1.400       .  A
C909        H913   1.084       .  S
C910        O914   1.372       .  S
O912        H916   0.992       .  S
O914        H915   0.992       .  S
C917        C918   1.407       .  A
C917        C922   1.411       .  A
C918        C919   1.402       .  A
C918        H923   1.083       .  S
C919        C920   1.410       .  A
C919        O924   1.372       .  S
C920        C921   1.407       .  A
C921        C922   1.404       .  A
C921        H925   1.083       .  S
C922        O926   1.371       .  S
O924        H928   0.992       .  S
O926        H927   0.992       .  S
C929        C930   1.401       .  A
C929        C934   1.409       .  A
C930        C931   1.395       .  A
C930        H935   1.084       .  S
C931        C932   1.410       .  A
C931        O936   1.372       .  S
C932        C933   1.405       .  A
C933        C934   1.402       .  A
C933        H937   1.083       .  S
C934        O938   1.372       .  S
O936        H940   0.992       .  S
O938        H939   0.991       .  S
C941        C942   1.405       .  A
C941        C946   1.410       .  A
C942        C943   1.399       .  A
C942        H947   1.084       .  S
C943        C944   1.410       .  A
C943        O948   1.371       .  S
C944        C945   1.406       .  A
C945        C946   1.404       .  A
C945        H949   1.083       .  S
C946        O950   1.373       .  S
O948        H952   0.992       .  S
O950        H951   0.992       .  S
C953        C954   1.405       .  A
C953        C958   1.408       .  A
C954        C955   1.402       .  A
C954        H959   1.084       .  S
C955        C956   1.410       .  A
C955        O960   1.371       .  S
C956        C957   1.404       .  A
C957        C958   1.399       .  A
C957        H961   1.084       .  S
C958        O962   1.372       .  S
O960        H964   0.992       .  S
O962        H963   0.992   1_556  S
C965        C966   1.405       .  A
C965        C970   1.412       .  A
C966        C967   1.402       .  A
C966        H971   1.083       .  S
C967        C968   1.412       .  A
C967        O972   1.371       .  S
C968        C969   1.405       .  A
C969        C970   1.401       .  A
C969        H973   1.084       .  S
C970        O974   1.372       .  S
O972        H976   0.991       .  S
O974        H975   0.992       .  S
C977        C978   1.407       .  A
C977        C982   1.407       .  A
C978        C979   1.406       .  A
C978        H983   1.084       .  S
C979        C980   1.413       .  A
C979        O984   1.372       .  S
C980        C981   1.404       .  A
C981        C982   1.397       .  A
C981        H985   1.083       .  S
C982        O986   1.372       .  S
O984        H988   0.992       .  S
O986        H987   0.992       .  S
C989        C990   1.403       .  A
C989        C994   1.407       .  A
C990        C991   1.402       .  A
C990        H995   1.084       .  S
C991        C992   1.411       .  A
C991        O996   1.372       .  S
C992        C993   1.404       .  A
C993        C994   1.399       .  A
C993        H997   1.084       .  S
C994        O998   1.372       .  S
O996       H1000   0.992       .  S
O998        H999   0.992       .  S
C1001      C1002   1.405       .  A
C1001      C1006   1.410       .  A
C1002      C1003   1.400       .  A
C1002      H1007   1.084       .  S
C1003      C1004   1.409       .  A
C1003      O1008   1.372       .  S
C1004      C1005   1.404       .  A
C1005      C1006   1.401       .  A
C1005      H1009   1.084       .  S
C1006      O1010   1.371       .  S
O1008      H1012   0.992       .  S
O1010      H1011   0.992       .  S
C1013      C1014   1.402       .  A
C1013      C1018   1.408       .  A
C1014      C1015   1.400       .  A
C1014      H1019   1.084       .  S
C1015      C1016   1.409       .  A
C1015      O1020   1.373       .  S
C1016      C1017   1.404       .  A
C1017      C1018   1.400       .  A
C1017      H1021   1.084       .  S
C1018      O1022   1.372       .  S
O1020      H1024   0.992       .  S
O1022      H1023   0.992       .  S
C1025      C1026   1.405       .  A
C1025      C1030   1.411       .  A
C1026      C1027   1.403       .  A
C1026      H1031   1.083       .  S
C1027      C1028   1.410       .  A
C1027      O1032   1.373       .  S
C1028      C1029   1.404       .  A
C1029      C1030   1.400       .  A
C1029      H1033   1.084       .  S
C1030      O1034   1.371       .  S
O1032      H1036   0.992       .  S
O1034      H1035   0.992       .  S
C1037      C1038   1.403       .  A
C1037      C1042   1.405       .  A
C1038      C1039   1.399       .  A
C1038      H1043   1.084       .  S
C1039      C1040   1.408       .  A
C1039      O1044   1.372       .  S
C1040      C1041   1.402       .  A
C1041      C1042   1.397       .  A
C1041      H1045   1.084       .  S
C1042      O1046   1.371       .  S
O1046      H1047   0.991       .  S
C1049      C1050   1.406       .  A
C1049      C1054   1.412       .  A
C1050      C1051   1.403       .  A
C1050      H1055   1.083       .  S
C1051      C1052   1.410       .  A
C1051      O1056   1.371       .  S
C1052      C1053   1.403       .  A
C1053      C1054   1.400       .  A
C1053      H1057   1.084       .  S
C1054      O1058   1.372       .  S
O1056      H1060   0.991       .  S
O1058      H1059   0.992       .  S
C1061      C1062   1.402       .  A
C1061      C1066   1.408       .  A
C1062      C1063   1.399       .  A
C1062      H1067   1.084       .  S
C1063      C1064   1.406       .  A
C1063      O1068   1.372       .  S
C1064      C1065   1.401       .  A
C1065      C1066   1.398       .  A
C1065      H1069   1.084       .  S
C1066      O1070   1.372       .  S
O1068      H1072   0.992       .  S
O1070      H1071   0.992       .  S
In1073     O1075   2.226       .  S
In1073     O1076   2.276       .  S
In1073     O1084   2.235       .  S
In1073     O1078   2.238       .  S
In1073     O1080   2.268       .  S
In1073     O1081   2.250       .  S
In1073     O1082   2.208       .  S
In1073     O1085   2.245       .  S
C1074      O1080   1.264       .  A
C1074      O1082   1.258       .  A
C1074      C1126   1.460       .  S
O1075      C1083   1.258       .  A
O1076      C1083   1.265       .  A
C1077      O1084   1.261       .  A
C1077      O1078   1.262       .  A
C1077      C1600   1.467       .  S
C1079      O1081   1.265       .  A
C1079      O1085   1.262       .  A
C1079      C1251   1.469       .  S
In1086     O1088   2.247       .  S
In1086     O1089   2.257       .  S
In1086     O1097   2.235       .  S
In1086     O1091   2.254       .  S
In1086     O1093   2.271       .  S
In1086     O1094   2.271       .  S
In1086     O1095   2.220       .  S
In1086     O1098   2.224       .  S
C1087      O1093   1.264       .  A
C1087      O1095   1.259       .  A
C1087      C1139   1.465       .  S
O1088      C1096   1.260       .  A
O1089      C1096   1.263       .  A
C1090      O1097   1.262       .  A
C1090      O1091   1.265       .  A
C1090      C1585   1.484       .  S
C1092      O1094   1.265       .  A
C1092      O1098   1.260       .  A
C1096      C1268   1.468       .  S
In1099     O1101   2.244       .  S
In1099     O1102   2.243       .  S
In1099     O1110   2.236       .  S
In1099     O1104   2.233       .  S
In1099     O1106   2.278       .  S
In1099     O1107   2.277       .  S
In1099     O1108   2.215       .  S
In1099     O1111   2.202       .  S
C1100      O1106   1.264       .  A
C1100      O1108   1.257       .  A
C1100      C1152   1.465       .  S
O1101      C1109   1.262       .  A
O1102      C1109   1.264       .  A
C1103      O1110   1.262       .  A
C1103      O1104   1.262       .  A
C1103      C1573   1.466       .  S
C1105      O1107   1.265       .  A
C1105      O1111   1.257       .  A
C1109      C1281   1.466       .  S
In1112     O1114   2.203       .  S
In1112     O1115   2.271       .  S
In1112     O1123   2.236       .  S
In1112     O1117   2.241       .  S
In1112     O1119   2.272       .  S
In1112     O1120   2.246       .  S
In1112     O1121   2.235       .  S
In1112     O1124   2.234       .  S
C1113      O1119   1.262       .  A
C1113      O1121   1.259       .  A
C1113      C1165   1.469       .  S
O1114      C1122   1.259       .  A
O1115      C1122   1.264       .  A
C1116      O1123   1.262       .  A
C1116      O1117   1.264       .  A
C1116      C1561   1.481       .  S
C1118      O1120   1.262       .  A
C1118      O1124   1.259       .  A
C1118      C1290   1.459       .  S
In1125     O1127   2.235       .  S
In1125     O1128   2.246       .  S
In1125     O1136   2.241       .  S
In1125     O1130   2.240       .  S
In1125     O1132   2.270       .  S
In1125     O1133   2.277       .  S
In1125     O1134   2.209       .  S
In1125     O1137   2.221       .  S
C1126      O1132   1.263       .  A
C1126      O1134   1.257       .  A
O1127      C1135   1.261       .  A
O1128      C1135   1.264       .  A
C1129      O1136   1.262       .  A
C1129      O1130   1.262       .  A
C1129      C1549   1.472       .  S
C1131      O1133   1.265       .  A
C1131      O1137   1.258       .  A
C1135      C1333   1.463       .  S
In1138     O1140   2.219       .  S
In1138     O1141   2.274       .  S
In1138     O1149   2.236       .  S
In1138     O1143   2.243       .  S
In1138     O1145   2.271       .  S
In1138     O1146   2.248       .  S
In1138     O1147   2.221       .  S
In1138     O1150   2.251       .  S
C1139      O1145   1.265       .  A
C1139      O1147   1.259       .  A
O1140      C1148   1.260       .  A
O1141      C1148   1.266       .  A
C1142      O1149   1.263       .  A
C1142      O1143   1.265       .  A
C1142      C1537   1.481       .  S
C1144      O1146   1.263       .  A
C1144      O1150   1.260       .  A
C1144      C1342   1.468       .  S
In1151     O1153   2.218       .  S
In1151     O1154   2.279       .  S
In1151     O1162   2.246       .  S
In1151     O1156   2.239       .  S
In1151     O1158   2.281       .  S
In1151     O1159   2.255       .  S
In1151     O1160   2.215       .  S
In1151     O1163   2.253       .  S
C1152      O1158   1.265       .  A
C1152      O1160   1.257       .  A
O1153      C1161   1.258       .  A
O1154      C1161   1.266       .  A
C1155      O1162   1.263       .  A
C1155      O1156   1.263       .  A
C1155      C1525   1.474       .  S
C1157      O1159   1.263       .  A
C1157      O1163   1.261       .  A
C1157      C1303   1.472       .  S
In1164     O1166   2.238       .  S
In1164     O1167   2.253       .  S
In1164     O1175   2.233       .  S
In1164     O1169   2.262       .  S
In1164     O1171   2.275       .  S
In1164     O1172   2.276       .  S
In1164     O1173   2.232       .  S
In1164     O1176   2.223       .  S
C1165      O1171   1.264       .  A
C1165      O1173   1.258       .  A
O1166      C1174   1.259       .  A
O1167      C1174   1.263       .  A
C1168      O1175   1.263       .  A
C1168      O1169   1.265       .  A
C1168      C1516   1.484       .  S
C1170      O1172   1.264       .  A
C1170      O1176   1.261       .  A
C1174      C1320   1.464       .  S
N1177      C1182   1.352       .  A
N1177      C1181   1.353       .  A
N1177      H1209   1.041   1_655  S
N1178      C1185   1.351       .  A
N1178      C1186   1.350       .  A
N1179      C1184   1.354       .  A
N1179      C1183   1.353       .  A
N1179      H1210   1.040       .  S
N1180      C1187   1.351       .  A
N1180      C1188   1.351       .  A
C1181      C1189   1.386       .  A
C1181      C1733   1.414   1_554  A
C1182      C1198   1.413       .  A
C1182      C1190   1.386       .  A
C1183      C1191   1.387       .  A
C1183      C1736   1.418   1_554  A
C1184      C1199   1.417       .  A
C1184      C1192   1.387       .  A
C1185      C1197   1.411   1_455  A
C1185      C1193   1.385       .  A
C1186      C1200   1.415       .  A
C1186      C1194   1.387       .  A
C1187      C1195   1.386       .  A
C1187      C1198   1.412   1_455  A
C1188      C1196   1.387       .  A
C1188      C1199   1.413       .  A
C1189      C1190   1.377       .  A
C1189      H1201   1.082       .  S
C1190      H1202   1.082       .  S
C1191      C1192   1.379       .  A
C1191      H1203   1.082       .  S
C1192      H1204   1.082       .  S
C1193      C1194   1.375       .  A
C1193      H1205   1.082       .  S
C1194      H1206   1.082       .  S
C1195      C1196   1.375       .  A
C1195      H1207   1.082       .  S
C1196      H1208   1.082       .  S
C1197      C1588   1.494       .  S
C1197      C1717   1.414       .  A
C1198      C1540   1.492       .  S
C1199      C1513   1.493       .  S
C1200      C1564   1.493       .  S
C1200      C1719   1.418       .  A
N1211      C1216   1.352       .  A
N1211      C1215   1.351       .  A
N1211      H1243   1.042   1_655  S
N1212      C1219   1.349       .  A
N1212      C1220   1.350       .  A
N1213      C1218   1.351       .  A
N1213      C1217   1.352       .  A
N1213      H1244   1.042       .  S
N1214      C1221   1.347       .  A
N1214      C1222   1.348       .  A
C1215      C1223   1.388       .  A
C1215      C1231   1.413       .  A
C1216      C1768   1.411   1_554  A
C1216      C1224   1.386       .  A
C1217      C1225   1.387       .  A
C1217      C1234   1.413       .  A
C1218      C1769   1.411   1_554  A
C1218      C1226   1.386       .  A
C1219      C1231   1.411   1_455  A
C1219      C1227   1.386       .  A
C1220      C1234   1.412       .  A
C1220      C1228   1.386       .  A
C1221      C1229   1.386       .  A
C1221      C1232   1.407   1_455  A
C1222      C1230   1.386       .  A
C1222      C1233   1.407       .  A
C1223      C1224   1.377       .  A
C1223      H1235   1.082       .  S
C1224      H1236   1.082       .  S
C1225      C1226   1.376       .  A
C1225      H1237   1.082       .  S
C1226      H1238   1.082       .  S
C1227      C1228   1.375       .  A
C1227      H1239   1.082   1_455  S
C1228      H1240   1.082       .  S
C1229      C1230   1.374       .  A
C1229      H1241   1.082   1_455  S
C1230      H1242   1.082       .  S
C1231      C1552   1.488       .  S
C1232      C1597   1.482       .  S
C1232      C1752   1.412       .  A
C1233      C1576   1.481       .  S
C1233      C1754   1.410       .  A
C1234      C1528   1.492       .  S
In1245     O1247   2.231       .  S
In1245     O1248   2.267       .  S
In1245     O1256   2.233       .  S
In1245     O1250   2.248       .  S
In1245     O1252   2.263       .  S
In1245     O1253   2.257       .  S
In1245     O1254   2.215       .  S
In1245     O1257   2.246       .  S
C1246      O1252   1.265       .  A
C1246      O1254   1.258       .  A
C1246      C1324   1.461       .  S
O1247      C1255   1.260       .  A
O1248      C1255   1.266       .  A
C1249      O1256   1.263       .  A
C1249      O1250   1.265       .  A
C1249      C1501   1.484       .  S
C1251      O1253   1.264       .  A
C1251      O1257   1.260       .  A
C1255      C1264   1.470       .  S
In1258     O1260   2.247       .  S
In1258     O1261   2.250       .  S
In1258     O1269   2.231       .  S
In1258     O1263   2.254       .  S
In1258     O1265   2.270       .  S
In1258     O1266   2.264       .  S
In1258     O1267   2.217       .  S
In1258     O1270   2.234       .  S
C1259      O1265   1.265       .  A
C1259      O1267   1.258       .  A
C1259      C1337   1.463       .  S
O1260      C1268   1.260       .  A
O1261      C1268   1.263       .  A
C1262      O1269   1.262       .  A
C1262      O1263   1.265       .  A
C1262      C1492   1.481       .  S
C1264      O1266   1.265       .  A
C1264      O1270   1.261       .  A
In1271     O1273   2.238       .  S
In1271     O1274   2.258       .  S
In1271     O1282   2.248       .  S
In1271     O1276   2.239       .  S
In1271     O1278   2.265       .  S
In1271     O1279   2.272       .  S
In1271     O1280   2.230       .  S
In1271     O1283   2.216       .  S
C1272      O1278   1.264       .  A
C1272      O1280   1.260       .  A
C1272      C1298   1.468       .  S
O1273      C1281   1.259       .  A
O1274      C1281   1.264       .  A
C1275      O1282   1.264       .  A
C1275      O1276   1.263       .  A
C1275      C1480   1.483       .  S
C1277      O1279   1.266       .  A
C1277      O1283   1.259       .  A
C1277      C1294   1.466       .  S
In1284     O1286   2.221       .  S
In1284     O1287   2.266       .  S
In1284     O1295   2.220       .  S
In1284     O1289   2.252       .  S
In1284     O1291   2.274       .  S
In1284     O1292   2.243       .  S
In1284     O1293   2.227       .  S
In1284     O1296   2.239       .  S
C1285      O1291   1.263       .  A
C1285      O1293   1.259       .  A
C1285      C1311   1.467       .  S
O1286      C1294   1.261       .  A
O1287      C1294   1.264       .  A
C1288      O1295   1.261       .  A
C1288      O1289   1.264       .  A
C1288      C1468   1.476       .  S
C1290      O1292   1.261       .  A
C1290      O1296   1.259       .  A
In1297     O1299   2.231       .  S
In1297     O1300   2.266       .  S
In1297     O1308   2.243       .  S
In1297     O1302   2.264       .  S
In1297     O1304   2.273       .  S
In1297     O1305   2.260       .  S
In1297     O1306   2.232       .  S
In1297     O1309   2.251       .  S
C1298      O1304   1.265       .  A
C1298      O1306   1.259       .  A
O1299      C1307   1.261       .  A
O1300      C1307   1.265       .  A
C1301      O1308   1.262       .  A
C1301      O1302   1.265       .  A
C1301      C1453   1.489       .  S
C1303      O1305   1.263       .  A
C1303      O1309   1.260       .  A
C1307      C1316   1.469       .  S
In1310     O1312   2.245       .  S
In1310     O1313   2.247       .  S
In1310     O1321   2.239       .  S
In1310     O1315   2.243       .  S
In1310     O1317   2.272       .  S
In1310     O1318   2.266       .  S
In1310     O1319   2.222       .  S
In1310     O1322   2.226       .  S
C1311      O1317   1.265       .  A
C1311      O1319   1.259       .  A
O1312      C1320   1.260       .  A
O1313      C1320   1.263       .  A
C1314      O1321   1.263       .  A
C1314      O1315   1.265       .  A
C1314      C1441   1.481       .  S
C1316      O1318   1.266       .  A
C1316      O1322   1.261       .  A
In1323     O1325   2.244       .  S
In1323     O1326   2.245       .  S
In1323     O1334   2.219       .  S
In1323     O1328   2.249       .  S
In1323     O1330   2.262       .  S
In1323     O1331   2.268       .  S
In1323     O1332   2.217       .  S
In1323     O1335   2.219       .  S
C1324      O1330   1.263       .  A
C1324      O1332   1.258       .  A
O1325      C1333   1.259       .  A
O1326      C1333   1.261       .  A
C1327      O1334   1.262       .  A
C1327      O1328   1.263       .  A
C1327      C1429   1.476       .  S
C1329      O1331   1.264       .  A
C1329      O1335   1.260       .  A
C1329      C1346   1.465       .  S
In1336     O1338   2.218       .  S
In1336     O1339   2.272       .  S
In1336     O1347   2.235       .  S
In1336     O1341   2.238       .  S
In1336     O1343   2.265       .  S
In1336     O1344   2.262       .  S
In1336     O1345   2.223       .  S
In1336     O1348   2.239       .  S
C1337      O1343   1.263       .  A
C1337      O1345   1.259       .  A
O1338      C1346   1.259       .  A
O1339      C1346   1.265       .  A
C1340      O1347   1.263       .  A
C1340      O1341   1.263       .  A
C1340      C1417   1.479       .  S
C1342      O1344   1.264       .  A
C1342      O1348   1.258       .  A
N1349      C1354   1.352       .  A
N1349      C1353   1.355       .  A
N1349      H1381   1.041       .  S
N1350      C1357   1.351       .  A
N1350      C1358   1.349       .  A
N1351      C1356   1.353       .  A
N1351      C1355   1.351       .  A
N1351      H1382   1.041       .  S
N1352      C1359   1.352       .  A
N1352      C1360   1.353       .  A
C1353      C1361   1.386       .  A
C1353      C1369   1.416       .  A
C1354      C1906   1.416   1_554  A
C1354      C1362   1.388       .  A
C1355      C1363   1.388       .  A
C1355      C1372   1.416       .  A
C1356      C1907   1.415   1_554  A
C1356      C1364   1.386       .  A
C1357      C1369   1.412       .  A
C1357      C1365   1.386       .  A
C1358      C1372   1.411       .  A
C1358      C1366   1.387       .  A
C1359      C1367   1.387       .  A
C1359      C1370   1.416       .  A
C1360      C1368   1.385       .  A
C1360      C1371   1.414       .  A
C1361      C1362   1.379       .  A
C1361      H1373   1.082       .  S
C1362      H1374   1.082       .  S
C1363      C1364   1.378       .  A
C1363      H1375   1.082       .  S
C1364      H1376   1.082       .  S
C1365      C1366   1.374       .  A
C1365      H1377   1.082       .  S
C1366      H1378   1.082       .  S
C1367      C1368   1.375       .  A
C1367      H1379   1.082       .  S
C1368      H1380   1.082       .  S
C1369      C1456   1.499       .  S
C1370      C1477   1.495       .  S
C1370      C1890   1.416       .  A
C1371      C1504   1.498       .  S
C1371      C1892   1.415       .  A
C1372      C1432   1.486       .  S
N1383      C1388   1.352       .  A
N1383      C1387   1.354       .  A
N1383      H1415   1.040       .  S
N1384      C1391   1.350       .  A
N1384      C1392   1.350       .  A
N1385      C1390   1.352       .  A
N1385      C1389   1.352       .  A
N1385      H1416   1.041       .  S
N1386      C1393   1.350       .  A
N1386      C1394   1.351       .  A
C1387      C1395   1.387       .  A
C1387      C1403   1.415       .  A
C1388      C1940   1.413   1_554  A
C1388      C1396   1.386       .  A
C1389      C1397   1.388       .  A
C1389      C1406   1.414       .  A
C1390      C1941   1.412   1_554  A
C1390      C1398   1.385       .  A
C1391      C1403   1.413       .  A
C1391      C1399   1.386       .  A
C1392      C1406   1.413       .  A
C1392      C1400   1.387       .  A
C1393      C1401   1.386       .  A
C1393      C1404   1.411       .  A
C1394      C1402   1.386       .  A
C1394      C1405   1.412       .  A
C1395      C1396   1.375       .  A
C1395      H1407   1.082       .  S
C1396      H1408   1.082       .  S
C1397      C1398   1.377       .  A
C1397      H1409   1.082       .  S
C1398      H1410   1.082       .  S
C1399      C1400   1.376       .  A
C1399      H1411   1.082       .  S
C1400      H1412   1.082       .  S
C1401      C1402   1.371       .  A
C1401      H1413   1.082       .  S
C1402      H1414   1.082       .  S
C1403      C1444   1.492       .  S
C1404      C1465   1.487       .  S
C1404      C1924   1.414       .  A
C1405      C1489   1.490       .  S
C1405      C1926   1.412       .  A
C1406      C1420   1.488       .  S
C1417      C1418   1.404       .  A
C1417      C1422   1.411       .  A
C1418      C1419   1.398       .  A
C1418      H1423   1.083       .  S
C1419      C1420   1.408       .  A
C1419      O1424   1.373       .  S
C1420      C1421   1.403       .  A
C1421      C1422   1.402       .  A
C1421      H1425   1.084       .  S
C1422      O1426   1.372       .  S
O1424      H1428   0.992       .  S
O1426      H1427   0.992       .  S
C1429      C1430   1.404       .  A
C1429      C1434   1.411       .  A
C1430      C1431   1.394       .  A
C1430      H1435   1.083       .  S
C1431      C1432   1.406       .  A
C1431      O1436   1.372       .  S
C1432      C1433   1.405       .  A
C1433      C1434   1.402       .  A
C1433      H1437   1.084       .  S
C1434      O1438   1.372       .  S
O1436      H1440   0.992       .  S
O1438      H1439   0.992       .  S
C1441      C1442   1.404       .  A
C1441      C1446   1.412       .  A
C1442      C1443   1.400       .  A
C1442      H1447   1.083       .  S
C1443      C1444   1.408       .  A
C1443      O1448   1.371       .  S
C1444      C1445   1.404       .  A
C1445      C1446   1.401       .  A
C1445      H1449   1.084       .  S
C1446      O1450   1.372       .  S
O1448      H1452   0.992       .  S
O1450      H1451   0.992       .  S
C1453      C1454   1.407       .  A
C1453      C1458   1.411       .  A
C1454      C1455   1.402       .  A
C1454      H1459   1.083       .  S
C1455      C1456   1.410       .  A
C1455      O1460   1.372       .  S
C1456      C1457   1.407       .  A
C1457      C1458   1.404       .  A
C1457      H1461   1.083       .  S
C1458      O1462   1.371       .  S
O1460      H1464   0.992       .  S
O1462      H1463   0.992       .  S
C1465      C1466   1.401       .  A
C1465      C1470   1.409       .  A
C1466      C1467   1.395       .  A
C1466      H1471   1.084       .  S
C1467      C1468   1.410       .  A
C1467      O1472   1.372       .  S
C1468      C1469   1.405       .  A
C1469      C1470   1.402       .  A
C1469      H1473   1.083       .  S
C1470      O1474   1.372       .  S
O1472      H1476   0.992       .  S
O1474      H1475   0.991       .  S
C1477      C1478   1.405       .  A
C1477      C1482   1.410       .  A
C1478      C1479   1.399       .  A
C1478      H1483   1.084       .  S
C1479      C1480   1.410       .  A
C1479      O1484   1.371       .  S
C1480      C1481   1.406       .  A
C1481      C1482   1.403       .  A
C1481      H1485   1.083       .  S
C1482      O1486   1.373       .  S
O1484      H1488   0.992       .  S
O1486      H1487   0.992       .  S
C1489      C1490   1.405       .  A
C1489      C1494   1.408       .  A
C1490      C1491   1.403       .  A
C1490      H1495   1.084       .  S
C1491      C1492   1.410       .  A
C1491      O1496   1.371       .  S
C1492      C1493   1.404       .  A
C1493      C1494   1.399       .  A
C1493      H1497   1.084       .  S
C1494      O1498   1.372       .  S
O1496      H1500   0.992       .  S
O1498      H1499   0.992       .  S
C1501      C1502   1.406       .  A
C1501      C1506   1.412       .  A
C1502      C1503   1.402       .  A
C1502      H1507   1.083       .  S
C1503      C1504   1.412       .  A
C1503      O1508   1.372       .  S
C1504      C1505   1.405       .  A
C1505      C1506   1.400       .  A
C1505      H1509   1.084       .  S
C1506      O1510   1.372       .  S
O1508      H1512   0.992       .  S
O1510      H1511   0.992       .  S
C1513      C1514   1.407       .  A
C1513      C1518   1.407       .  A
C1514      C1515   1.406       .  A
C1514      H1519   1.084       .  S
C1515      C1516   1.412       .  A
C1515      O1520   1.372       .  S
C1516      C1517   1.404       .  A
C1517      C1518   1.397       .  A
C1517      H1521   1.083       .  S
C1518      O1522   1.372       .  S
O1520      H1524   0.992       .  S
O1522      H1523   0.992       .  S
C1525      C1526   1.403       .  A
C1525      C1530   1.408       .  A
C1526      C1527   1.402       .  A
C1526      H1531   1.084       .  S
C1527      C1528   1.411       .  A
C1527      O1532   1.372       .  S
C1528      C1529   1.404       .  A
C1529      C1530   1.399       .  A
C1529      H1533   1.084       .  S
C1530      O1534   1.372       .  S
O1532      H1536   0.992       .  S
O1534      H1535   0.992       .  S
C1537      C1538   1.405       .  A
C1537      C1542   1.410       .  A
C1538      C1539   1.400       .  A
C1538      H1543   1.084       .  S
C1539      C1540   1.410       .  A
C1539      O1544   1.372       .  S
C1540      C1541   1.404       .  A
C1541      C1542   1.401       .  A
C1541      H1545   1.083       .  S
C1542      O1546   1.371       .  S
O1544      H1548   0.992       .  S
O1546      H1547   0.992       .  S
C1549      C1550   1.402       .  A
C1549      C1554   1.408       .  A
C1550      C1551   1.400       .  A
C1550      H1555   1.084       .  S
C1551      C1552   1.409       .  A
C1551      O1556   1.373       .  S
C1552      C1553   1.404       .  A
C1553      C1554   1.400       .  A
C1553      H1557   1.084       .  S
C1554      O1558   1.372       .  S
O1556      H1560   0.992       .  S
O1558      H1559   0.992       .  S
C1561      C1562   1.405       .  A
C1561      C1566   1.411       .  A
C1562      C1563   1.403       .  A
C1562      H1567   1.083       .  S
C1563      C1564   1.410       .  A
C1563      O1568   1.373       .  S
C1564      C1565   1.404       .  A
C1565      C1566   1.399       .  A
C1565      H1569   1.084       .  S
C1566      O1570   1.371       .  S
O1568      H1572   0.992       .  S
O1570      H1571   0.992       .  S
C1573      C1574   1.402       .  A
C1573      C1578   1.405       .  A
C1574      C1575   1.399       .  A
C1574      H1579   1.084       .  S
C1575      C1576   1.408       .  A
C1575      O1580   1.372       .  S
C1576      C1577   1.403       .  A
C1577      C1578   1.397       .  A
C1577      H1581   1.084       .  S
C1578      O1582   1.371       .  S
O1580      H2120   0.992       .  S
O1582      H1583   0.991       .  S
H1584      O2116   0.992       .  S
C1585      C1586   1.406       .  A
C1585      C1590   1.412       .  A
C1586      C1587   1.403       .  A
C1586      H1591   1.083       .  S
C1587      C1588   1.410       .  A
C1587      O1592   1.371       .  S
C1588      C1589   1.403       .  A
C1589      C1590   1.400       .  A
C1589      H1593   1.084       .  S
C1590      O1594   1.372       .  S
O1592      H1596   0.991       .  S
O1594      H1595   0.992       .  S
C1597      C1598   1.402       .  A
C1597      C1602   1.408       .  A
C1598      C1599   1.399       .  A
C1598      H1603   1.084       .  S
C1599      C1600   1.406       .  A
C1599      O1604   1.372       .  S
C1600      C1601   1.401       .  A
C1601      C1602   1.399       .  A
C1601      H1605   1.084       .  S
C1602      O1606   1.373       .  S
O1604      H1608   0.992       .  S
O1606      H1607   0.992       .  S
In1609     O1611   2.226       .  S
In1609     O1612   2.274       .  S
In1609     O1620   2.235       .  S
In1609     O1614   2.236       .  S
In1609     O1616   2.268       .  S
In1609     O1617   2.250       .  S
In1609     O1618   2.207       .  S
In1609     O1621   2.246       .  S
C1610      O1616   1.264       .  A
C1610      O1618   1.258       .  A
C1610      C1662   1.460       .  S
O1611      C1619   1.258       .  A
O1612      C1619   1.265       .  A
C1613      O1620   1.261       .  A
C1613      O1614   1.262       .  A
C1613      C2136   1.466       .  S
C1615      O1617   1.265       .  A
C1615      O1621   1.262       .  A
C1615      C1787   1.469       .  S
In1622     O1624   2.247       .  S
In1622     O1625   2.257       .  S
In1622     O1633   2.236       .  S
In1622     O1627   2.253       .  S
In1622     O1629   2.272       .  S
In1622     O1630   2.269       .  S
In1622     O1631   2.220       .  S
In1622     O1634   2.224       .  S
C1623      O1629   1.264       .  A
C1623      O1631   1.259       .  A
C1623      C1675   1.465       .  S
O1624      C1632   1.260       .  A
O1625      C1632   1.263       .  A
C1626      O1633   1.262       .  A
C1626      O1627   1.265       .  A
C1626      C2121   1.484       .  S
C1628      O1630   1.265       .  A
C1628      O1634   1.260       .  A
C1632      C1804   1.468       .  S
In1635     O1637   2.245       .  S
In1635     O1638   2.242       .  S
In1635     O1646   2.237       .  S
In1635     O1640   2.234       .  S
In1635     O1642   2.278       .  S
In1635     O1643   2.277       .  S
In1635     O1644   2.214       .  S
In1635     O1647   2.202       .  S
C1636      O1642   1.264       .  A
C1636      O1644   1.258       .  A
C1636      C1688   1.466       .  S
O1637      C1645   1.262       .  A
O1638      C1645   1.264       .  A
C1639      O1646   1.262       .  A
C1639      O1640   1.261       .  A
C1639      C2109   1.466       .  S
C1641      O1643   1.265       .  A
C1641      O1647   1.256       .  A
C1645      C1817   1.466       .  S
In1648     O1650   2.204       .  S
In1648     O1651   2.271       .  S
In1648     O1659   2.239       .  S
In1648     O1653   2.241       .  S
In1648     O1655   2.272       .  S
In1648     O1656   2.247       .  S
In1648     O1657   2.235       .  S
In1648     O1660   2.233       .  S
C1649      O1655   1.263       .  A
C1649      O1657   1.259       .  A
C1649      C1701   1.469       .  S
O1650      C1658   1.259       .  A
O1651      C1658   1.264       .  A
C1652      O1659   1.263       .  A
C1652      O1653   1.264       .  A
C1652      C2097   1.482       .  S
C1654      O1656   1.262       .  A
C1654      O1660   1.259       .  A
C1654      C1826   1.460       .  S
In1661     O1663   2.234       .  S
In1661     O1664   2.246       .  S
In1661     O1672   2.241       .  S
In1661     O1666   2.240       .  S
In1661     O1668   2.271       .  S
In1661     O1669   2.278       .  S
In1661     O1670   2.209       .  S
In1661     O1673   2.221       .  S
C1662      O1668   1.263       .  A
C1662      O1670   1.257       .  A
O1663      C1671   1.261       .  A
O1664      C1671   1.264       .  A
C1665      O1672   1.262       .  A
C1665      O1666   1.262       .  A
C1665      C2085   1.473       .  S
C1667      O1669   1.265       .  A
C1667      O1673   1.258       .  A
C1671      C1869   1.462       .  S
In1674     O1676   2.219       .  S
In1674     O1677   2.274       .  S
In1674     O1685   2.236       .  S
In1674     O1679   2.243       .  S
In1674     O1681   2.272       .  S
In1674     O1682   2.248       .  S
In1674     O1683   2.220       .  S
In1674     O1686   2.252       .  S
C1675      O1681   1.265       .  A
C1675      O1683   1.259       .  A
O1676      C1684   1.260       .  A
O1677      C1684   1.266       .  A
C1678      O1685   1.263       .  A
C1678      O1679   1.265       .  A
C1678      C2073   1.481       .  S
C1680      O1682   1.263       .  A
C1680      O1686   1.260       .  A
C1680      C1878   1.468       .  S
In1687     O1689   2.220       .  S
In1687     O1690   2.279       .  S
In1687     O1698   2.246       .  S
In1687     O1692   2.239       .  S
In1687     O1694   2.282       .  S
In1687     O1695   2.253       .  S
In1687     O1696   2.214       .  S
In1687     O1699   2.253       .  S
C1688      O1694   1.265       .  A
C1688      O1696   1.257       .  A
O1689      C1697   1.258       .  A
O1690      C1697   1.266       .  A
C1691      O1698   1.263       .  A
C1691      O1692   1.264       .  A
C1691      C2061   1.474       .  S
C1693      O1695   1.263       .  A
C1693      O1699   1.261       .  A
C1693      C1839   1.471       .  S
In1700     O1702   2.237       .  S
In1700     O1703   2.254       .  S
In1700     O1711   2.234       .  S
In1700     O1705   2.262       .  S
In1700     O1707   2.275       .  S
In1700     O1708   2.275       .  S
In1700     O1709   2.232       .  S
In1700     O1712   2.224       .  S
C1701      O1707   1.264       .  A
C1701      O1709   1.258       .  A
O1702      C1710   1.259       .  A
O1703      C1710   1.263       .  A
C1704      O1711   1.263       .  A
C1704      O1705   1.265       .  A
C1704      C2052   1.485       .  S
C1706      O1708   1.264       .  A
C1706      O1712   1.261       .  A
C1710      C1856   1.464       .  S
N1713      C1718   1.352       .  A
N1713      C1717   1.353       .  A
N1713      H1745   1.041   1_655  S
N1714      C1721   1.352       .  A
N1714      C1722   1.351       .  A
N1715      C1720   1.354       .  A
N1715      C1719   1.352       .  A
N1715      H1746   1.040       .  S
N1716      C1723   1.351       .  A
N1716      C1724   1.351       .  A
C1717      C1725   1.386       .  A
C1718      C1734   1.413       .  A
C1718      C1726   1.386       .  A
C1719      C1727   1.388       .  A
C1720      C1735   1.417       .  A
C1720      C1728   1.387       .  A
C1721      C1733   1.412   1_455  A
C1721      C1729   1.385       .  A
C1722      C1736   1.415       .  A
C1722      C1730   1.387       .  A
C1723      C1731   1.386       .  A
C1723      C1734   1.412   1_455  A
C1724      C1732   1.386       .  A
C1724      C1735   1.413       .  A
C1725      C1726   1.377       .  A
C1725      H1737   1.082       .  S
C1726      H1738   1.082       .  S
C1727      C1728   1.380       .  A
C1727      H1739   1.082       .  S
C1728      H1740   1.082       .  S
C1729      C1730   1.375       .  A
C1729      H1741   1.082       .  S
C1730      H1742   1.082       .  S
C1731      C1732   1.375       .  A
C1731      H1743   1.082       .  S
C1732      H1744   1.082       .  S
C1733      C2124   1.493       .  S
C1734      C2076   1.491       .  S
C1735      C2049   1.493       .  S
C1736      C2100   1.494       .  S
N1747      C1752   1.352       .  A
N1747      C1751   1.351       .  A
N1747      H1779   1.042   1_655  S
N1748      C1755   1.349       .  A
N1748      C1756   1.350       .  A
N1749      C1754   1.351       .  A
N1749      C1753   1.351       .  A
N1749      H1780   1.042       .  S
N1750      C1757   1.348       .  A
N1750      C1758   1.348       .  A
C1751      C1759   1.388       .  A
C1751      C1767   1.414       .  A
C1752      C1760   1.386       .  A
C1753      C1761   1.387       .  A
C1753      C1770   1.412       .  A
C1754      C1762   1.386       .  A
C1755      C1767   1.411   1_455  A
C1755      C1763   1.386       .  A
C1756      C1770   1.412       .  A
C1756      C1764   1.386       .  A
C1757      C1765   1.386       .  A
C1757      C1768   1.407   1_455  A
C1758      C1766   1.386       .  A
C1758      C1769   1.407       .  A
C1759      C1760   1.377       .  A
C1759      H1771   1.082       .  S
C1760      H1772   1.082       .  S
C1761      C1762   1.377       .  A
C1761      H1773   1.082       .  S
C1762      H1774   1.082       .  S
C1763      C1764   1.375       .  A
C1763      H1775   1.082       .  S
C1764      H1776   1.082       .  S
C1765      C1766   1.374       .  A
C1765      H1777   1.082   1_455  S
C1766      H1778   1.082       .  S
C1767      C2088   1.488       .  S
C1768      C2133   1.481       .  S
C1769      C2112   1.482       .  S
C1770      C2064   1.491       .  S
In1781     O1783   2.231       .  S
In1781     O1784   2.266       .  S
In1781     O1792   2.233       .  S
In1781     O1786   2.247       .  S
In1781     O1788   2.263       .  S
In1781     O1789   2.258       .  S
In1781     O1790   2.214       .  S
In1781     O1793   2.246       .  S
C1782      O1788   1.265       .  A
C1782      O1790   1.258       .  A
C1782      C1860   1.460       .  S
O1783      C1791   1.260       .  A
O1784      C1791   1.266       .  A
C1785      O1792   1.263       .  A
C1785      O1786   1.265       .  A
C1785      C2037   1.485       .  S
C1787      O1789   1.264       .  A
C1787      O1793   1.260       .  A
C1791      C1800   1.469       .  S
In1794     O1796   2.247       .  S
In1794     O1797   2.250       .  S
In1794     O1805   2.231       .  S
In1794     O1799   2.255       .  S
In1794     O1801   2.269       .  S
In1794     O1802   2.262       .  S
In1794     O1803   2.218       .  S
In1794     O1806   2.234       .  S
C1795      O1801   1.265       .  A
C1795      O1803   1.258       .  A
C1795      C1873   1.463       .  S
O1796      C1804   1.260       .  A
O1797      C1804   1.263       .  A
C1798      O1805   1.262       .  A
C1798      O1799   1.265       .  A
C1798      C2028   1.481       .  S
C1800      O1802   1.265       .  A
C1800      O1806   1.261       .  A
In1807     O1809   2.238       .  S
In1807     O1810   2.259       .  S
In1807     O1818   2.248       .  S
In1807     O1812   2.242       .  S
In1807     O1814   2.266       .  S
In1807     O1815   2.272       .  S
In1807     O1816   2.231       .  S
In1807     O1819   2.217       .  S
C1808      O1814   1.264       .  A
C1808      O1816   1.260       .  A
C1808      C1834   1.469       .  S
O1809      C1817   1.259       .  A
O1810      C1817   1.264       .  A
C1811      O1818   1.263       .  A
C1811      O1812   1.264       .  A
C1811      C2016   1.483       .  S
C1813      O1815   1.266       .  A
C1813      O1819   1.259       .  A
C1813      C1830   1.466       .  S
In1820     O1822   2.222       .  S
In1820     O1823   2.266       .  S
In1820     O1831   2.219       .  S
In1820     O1825   2.251       .  S
In1820     O1827   2.272       .  S
In1820     O1828   2.242       .  S
In1820     O1829   2.227       .  S
In1820     O1832   2.240       .  S
C1821      O1827   1.263       .  A
C1821      O1829   1.259       .  A
C1821      C1847   1.466       .  S
O1822      C1830   1.261       .  A
O1823      C1830   1.264       .  A
C1824      O1831   1.261       .  A
C1824      O1825   1.264       .  A
C1824      C2004   1.475       .  S
C1826      O1828   1.261       .  A
C1826      O1832   1.258       .  A
In1833     O1835   2.230       .  S
In1833     O1836   2.266       .  S
In1833     O1844   2.243       .  S
In1833     O1838   2.264       .  S
In1833     O1840   2.273       .  S
In1833     O1841   2.261       .  S
In1833     O1842   2.233       .  S
In1833     O1845   2.250       .  S
C1834      O1840   1.264       .  A
C1834      O1842   1.259       .  A
O1835      C1843   1.261       .  A
O1836      C1843   1.265       .  A
C1837      O1844   1.262       .  A
C1837      O1838   1.265       .  A
C1837      C1989   1.489       .  S
C1839      O1841   1.263       .  A
C1839      O1845   1.260       .  A
C1843      C1852   1.468       .  S
In1846     O1848   2.245       .  S
In1846     O1849   2.246       .  S
In1846     O1857   2.237       .  S
In1846     O1851   2.244       .  S
In1846     O1853   2.270       .  S
In1846     O1854   2.265       .  S
In1846     O1855   2.222       .  S
In1846     O1858   2.226       .  S
C1847      O1853   1.265       .  A
C1847      O1855   1.259       .  A
O1848      C1856   1.260       .  A
O1849      C1856   1.263       .  A
C1850      O1857   1.263       .  A
C1850      O1851   1.265       .  A
C1850      C1977   1.481       .  S
C1852      O1854   1.266       .  A
C1852      O1858   1.261       .  A
In1859     O1861   2.245       .  S
In1859     O1862   2.244       .  S
In1859     O1870   2.219       .  S
In1859     O1864   2.250       .  S
In1859     O1866   2.262       .  S
In1859     O1867   2.268       .  S
In1859     O1868   2.217       .  S
In1859     O1871   2.218       .  S
C1860      O1866   1.263       .  A
C1860      O1868   1.258       .  A
O1861      C1869   1.259       .  A
O1862      C1869   1.261       .  A
C1863      O1870   1.262       .  A
C1863      O1864   1.264       .  A
C1863      C1965   1.477       .  S
C1865      O1867   1.264       .  A
C1865      O1871   1.260       .  A
C1865      C1882   1.465       .  S
In1872     O1874   2.217       .  S
In1872     O1875   2.272       .  S
In1872     O1883   2.237       .  S
In1872     O1877   2.239       .  S
In1872     O1879   2.264       .  S
In1872     O1880   2.263       .  S
In1872     O1881   2.224       .  S
In1872     O1884   2.238       .  S
C1873      O1879   1.262       .  A
C1873      O1881   1.259       .  A
O1874      C1882   1.259       .  A
O1875      C1882   1.265       .  A
C1876      O1883   1.263       .  A
C1876      O1877   1.262       .  A
C1876      C1953   1.479       .  S
C1878      O1880   1.264       .  A
C1878      O1884   1.258       .  A
N1885      C1890   1.351       .  A
N1885      C1889   1.355       .  A
N1885      H1917   1.041       .  S
N1886      C1893   1.351       .  A
N1886      C1894   1.349       .  A
N1887      C1892   1.353       .  A
N1887      C1891   1.351       .  A
N1887      H1918   1.041       .  S
N1888      C1895   1.352       .  A
N1888      C1896   1.353       .  A
C1889      C1897   1.385       .  A
C1889      C1905   1.416       .  A
C1890      C1898   1.388       .  A
C1891      C1899   1.388       .  A
C1891      C1908   1.416       .  A
C1892      C1900   1.386       .  A
C1893      C1905   1.412       .  A
C1893      C1901   1.386       .  A
C1894      C1908   1.412       .  A
C1894      C1902   1.387       .  A
C1895      C1903   1.387       .  A
C1895      C1906   1.416       .  A
C1896      C1904   1.385       .  A
C1896      C1907   1.415       .  A
C1897      C1898   1.379       .  A
C1897      H1909   1.082       .  S
C1898      H1910   1.082       .  S
C1899      C1900   1.378       .  A
C1899      H1911   1.082       .  S
C1900      H1912   1.082       .  S
C1901      C1902   1.374       .  A
C1901      H1913   1.082       .  S
C1902      H1914   1.082       .  S
C1903      C1904   1.375       .  A
C1903      H1915   1.082       .  S
C1904      H1916   1.082       .  S
C1905      C1992   1.499       .  S
C1906      C2013   1.495       .  S
C1907      C2040   1.499       .  S
C1908      C1968   1.486       .  S
N1919      C1924   1.352       .  A
N1919      C1923   1.354       .  A
N1919      H1951   1.042       .  S
N1920      C1927   1.350       .  A
N1920      C1928   1.350       .  A
N1921      C1926   1.352       .  A
N1921      C1925   1.351       .  A
N1921      H1952   1.042       .  S
N1922      C1929   1.350       .  A
N1922      C1930   1.351       .  A
C1923      C1931   1.387       .  A
C1923      C1939   1.415       .  A
C1924      C1932   1.386       .  A
C1925      C1933   1.387       .  A
C1925      C1942   1.414       .  A
C1926      C1934   1.385       .  A
C1927      C1939   1.412       .  A
C1927      C1935   1.386       .  A
C1928      C1942   1.413       .  A
C1928      C1936   1.387       .  A
C1929      C1937   1.386       .  A
C1929      C1940   1.411       .  A
C1930      C1938   1.386       .  A
C1930      C1941   1.412       .  A
C1931      C1932   1.375       .  A
C1931      H1943   1.082       .  S
C1932      H1944   1.082       .  S
C1933      C1934   1.377       .  A
C1933      H1945   1.082       .  S
C1934      H1946   1.082       .  S
C1935      C1936   1.376       .  A
C1935      H1947   1.082       .  S
C1936      H1948   1.082       .  S
C1937      C1938   1.371       .  A
C1937      H1949   1.082       .  S
C1938      H1950   1.082       .  S
C1939      C1980   1.491       .  S
C1940      C2001   1.486       .  S
C1941      C2025   1.490       .  S
C1942      C1956   1.487       .  S
C1953      C1954   1.404       .  A
C1953      C1958   1.412       .  A
C1954      C1955   1.398       .  A
C1954      H1959   1.083       .  S
C1955      C1956   1.407       .  A
C1955      O1960   1.373       .  S
C1956      C1957   1.403       .  A
C1957      C1958   1.401       .  A
C1957      H1961   1.084       .  S
C1958      O1962   1.372       .  S
O1960      H1964   0.992       .  S
O1962      H1963   0.992       .  S
C1965      C1966   1.404       .  A
C1965      C1970   1.411       .  A
C1966      C1967   1.394       .  A
C1966      H1971   1.083       .  S
C1967      C1968   1.406       .  A
C1967      O1972   1.372       .  S
C1968      C1969   1.405       .  A
C1969      C1970   1.401       .  A
C1969      H1973   1.084       .  S
C1970      O1974   1.372       .  S
O1972      H1976   0.992       .  S
O1974      H1975   0.991       .  S
C1977      C1978   1.405       .  A
C1977      C1982   1.411       .  A
C1978      C1979   1.400       .  A
C1978      H1983   1.083       .  S
C1979      C1980   1.409       .  A
C1979      O1984   1.372       .  S
C1980      C1981   1.403       .  A
C1981      C1982   1.400       .  A
C1981      H1985   1.084       .  S
C1982      O1986   1.372       .  S
O1984      H1988   0.992       .  S
O1986      H1987   0.992       .  S
C1989      C1990   1.407       .  A
C1989      C1994   1.411       .  A
C1990      C1991   1.402       .  A
C1990      H1995   1.083       .  S
C1991      C1992   1.410       .  A
C1991      O1996   1.372       .  S
C1992      C1993   1.407       .  A
C1993      C1994   1.404       .  A
C1993      H1997   1.083       .  S
C1994      O1998   1.371       .  S
O1996      H2000   0.992       .  S
O1998      H1999   0.992       .  S
C2001      C2002   1.401       .  A
C2001      C2006   1.409       .  A
C2002      C2003   1.395       .  A
C2002      H2007   1.084       .  S
C2003      C2004   1.410       .  A
C2003      O2008   1.372       .  S
C2004      C2005   1.405       .  A
C2005      C2006   1.402       .  A
C2005      H2009   1.083       .  S
C2006      O2010   1.372       .  S
O2008      H2012   0.992       .  S
O2010      H2011   0.991       .  S
C2013      C2014   1.405       .  A
C2013      C2018   1.410       .  A
C2014      C2015   1.399       .  A
C2014      H2019   1.084       .  S
C2015      C2016   1.410       .  A
C2015      O2020   1.371       .  S
C2016      C2017   1.406       .  A
C2017      C2018   1.404       .  A
C2017      H2021   1.083       .  S
C2018      O2022   1.373       .  S
O2020      H2024   0.992       .  S
O2022      H2023   0.992       .  S
C2025      C2026   1.405       .  A
C2025      C2030   1.408       .  A
C2026      C2027   1.402       .  A
C2026      H2031   1.084       .  S
C2027      C2028   1.410       .  A
C2027      O2032   1.371       .  S
C2028      C2029   1.404       .  A
C2029      C2030   1.399       .  A
C2029      H2033   1.084       .  S
C2030      O2034   1.372       .  S
O2032      H2036   0.992       .  S
O2034      H2035   0.992   1_556  S
C2037      C2038   1.405       .  A
C2037      C2042   1.412       .  A
C2038      C2039   1.402       .  A
C2038      H2043   1.083       .  S
C2039      C2040   1.411       .  A
C2039      O2044   1.371       .  S
C2040      C2041   1.405       .  A
C2041      C2042   1.401       .  A
C2041      H2045   1.084       .  S
C2042      O2046   1.372       .  S
O2044      H2048   0.991       .  S
O2046      H2047   0.992       .  S
C2049      C2050   1.407       .  A
C2049      C2054   1.407       .  A
C2050      C2051   1.406       .  A
C2050      H2055   1.084       .  S
C2051      C2052   1.413       .  A
C2051      O2056   1.372       .  S
C2052      C2053   1.404       .  A
C2053      C2054   1.397       .  A
C2053      H2057   1.083       .  S
C2054      O2058   1.372       .  S
O2056      H2060   0.992       .  S
O2058      H2059   0.992       .  S
C2061      C2062   1.403       .  A
C2061      C2066   1.407       .  A
C2062      C2063   1.402       .  A
C2062      H2067   1.084       .  S
C2063      C2064   1.411       .  A
C2063      O2068   1.372       .  S
C2064      C2065   1.404       .  A
C2065      C2066   1.398       .  A
C2065      H2069   1.084       .  S
C2066      O2070   1.372       .  S
O2068      H2072   0.992       .  S
O2070      H2071   0.992       .  S
C2073      C2074   1.406       .  A
C2073      C2078   1.410       .  A
C2074      C2075   1.400       .  A
C2074      H2079   1.084       .  S
C2075      C2076   1.409       .  A
C2075      O2080   1.372       .  S
C2076      C2077   1.404       .  A
C2077      C2078   1.401       .  A
C2077      H2081   1.084       .  S
C2078      O2082   1.371       .  S
O2080      H2084   0.992       .  S
O2082      H2083   0.992       .  S
C2085      C2086   1.402       .  A
C2085      C2090   1.408       .  A
C2086      C2087   1.400       .  A
C2086      H2091   1.084       .  S
C2087      C2088   1.409       .  A
C2087      O2092   1.373       .  S
C2088      C2089   1.404       .  A
C2089      C2090   1.400       .  A
C2089      H2093   1.084       .  S
C2090      O2094   1.372       .  S
O2092      H2096   0.992       .  S
O2094      H2095   0.991       .  S
C2097      C2098   1.405       .  A
C2097      C2102   1.411       .  A
C2098      C2099   1.403       .  A
C2098      H2103   1.083       .  S
C2099      C2100   1.410       .  A
C2099      O2104   1.373       .  S
C2100      C2101   1.404       .  A
C2101      C2102   1.400       .  A
C2101      H2105   1.084       .  S
C2102      O2106   1.371       .  S
O2104      H2108   0.992       .  S
O2106      H2107   0.992       .  S
C2109      C2110   1.403       .  A
C2109      C2114   1.405       .  A
C2110      C2111   1.399       .  A
C2110      H2115   1.084       .  S
C2111      C2112   1.408       .  A
C2111      O2116   1.372       .  S
C2112      C2113   1.402       .  A
C2113      C2114   1.397       .  A
C2113      H2117   1.084       .  S
C2114      O2118   1.371       .  S
O2118      H2119   0.992       .  S
C2121      C2122   1.406       .  A
C2121      C2126   1.412       .  A
C2122      C2123   1.403       .  A
C2122      H2127   1.083       .  S
C2123      C2124   1.410       .  A
C2123      O2128   1.371       .  S
C2124      C2125   1.403       .  A
C2125      C2126   1.400       .  A
C2125      H2129   1.084       .  S
C2126      O2130   1.372       .  S
O2128      H2132   0.991       .  S
O2130      H2131   0.992       .  S
C2133      C2134   1.402       .  A
C2133      C2138   1.408       .  A
C2134      C2135   1.399       .  A
C2134      H2139   1.084       .  S
C2135      C2136   1.406       .  A
C2135      O2140   1.372       .  S
C2136      C2137   1.401       .  A
C2137      C2138   1.398       .  A
C2137      H2141   1.084       .  S
C2138      O2142   1.372       .  S
O2140      H2144   0.992       .  S
O2142      H2143   0.992       .  S
