geometry optimzed in LAMMPS
_audit_creation_date              2020-12-01 
_audit_creation_method            'lammps2cif' 
_symmetry_space_group_name_H-M    'P1' 
_symmetry_Int_Tables_number       1 
_symmetry_cell_setting            triclinic 
loop_ 
_symmetry_equiv_pos_as_xyz 
  x,y,z 
_cell_length_a                    55.52991222 
_cell_length_b                    25.088987376512875 
_cell_length_c                    30.248904341816022 
_cell_angle_alpha                 89.83834051570355 
_cell_angle_beta                  89.94161302121059 
_cell_angle_gamma                 89.53491934241127 
loop_ 
_atom_site_label 
_atom_site_type_symbol 
_atom_site_fract_x 
_atom_site_fract_y 
_atom_site_fract_z 
_atom_site_charge 
O1          O  0.80311310  0.14485087  0.73466424    -0.56600
C2          C  0.84167726  0.99356820  0.72549585     0.76000
O3          O  0.86223776  0.12936252  0.64237318    -0.57800
C4          C  0.80913954  0.19341244  0.73138096     0.76000
C5          C  0.88203970  0.13188506  0.77728844     0.78400
Cd6        Cd  0.84387623  0.10878585  0.71597330     1.37500
O7          O  0.82540234  0.02232287  0.74318277    -0.56600
O8          O  0.86111225  0.11778090  0.78898123    -0.55400
C9          C  0.84391355  0.11417317  0.62094563     0.78300
O10         O  0.88559469  0.13621185  0.73599797    -0.57800
O11         O  0.85832008  0.01797266  0.70562169    -0.56200
O12         O  0.83113712  0.20244443  0.72399803    -0.56200
O13         O  0.82613677  0.09825730  0.64336615    -0.55400
O14         O  0.82527192  0.90688343  0.74373951    -0.56600
C15         C  0.80914269  0.73629440  0.73205651     0.76000
O16         O  0.86473073  0.79755860  0.64769443    -0.57800
C17         C  0.84170476  0.93472904  0.72605460     0.76000
C18         C  0.88017957  0.79640206  0.78427143     0.78400
Cd19       Cd  0.84399740  0.81930610  0.71917908     1.37500
O20         O  0.80307570  0.78514986  0.73373014    -0.56600
O21         O  0.85905386  0.81050783  0.79517841    -0.55400
C22         C  0.84674697  0.81164387  0.62446801     0.78300
O23         O  0.88421685  0.79131166  0.74318693    -0.57800
O24         O  0.83129911  0.72606540  0.72699200    -0.56200
O25         O  0.85854614  0.90937839  0.70717315    -0.56200
O26         O  0.82823408  0.82762100  0.64499594    -0.55400
O27         O  0.27534985  0.10254702  0.73947362    -0.56600
C28         C  0.28943680  0.27367380  0.73097424     0.76000
O29         O  0.23268242  0.21322961  0.65058480    -0.57800
C30         C  0.25745078  0.07503502  0.72717040     0.76000
C31         C  0.22117697  0.20709109  0.79324691     0.78400
Cd32       Cd  0.25474030  0.18993033  0.72166194     1.37500
O33         O  0.29585897  0.22501247  0.73228271    -0.56600
O34         O  0.24219294  0.18891348  0.80018257    -0.55400
C35         C  0.25020436  0.19830654  0.62642988     0.78300
O36         O  0.21613861  0.21894074  0.75341720    -0.57800
O37         O  0.26708718  0.28327078  0.72889723    -0.56200
O38         O  0.23909478  0.10058358  0.71389014    -0.56200
O39         O  0.26859998  0.18053188  0.64626929    -0.55400
O40         O  0.29587934  0.86571423  0.73451730    -0.56600
C41         C  0.25744182  0.01628973  0.72645147     0.76000
O42         O  0.23482249  0.88476236  0.64316349    -0.57800
C43         C  0.29024344  0.81720181  0.72923512     0.76000
C44         C  0.21920017  0.87320734  0.78150850     0.78400
Cd45       Cd  0.25503842  0.90144617  0.71610322     1.37500
O46         O  0.27537511  0.98758652  0.73762097    -0.56600
O47         O  0.24029962  0.88773198  0.79155265    -0.55400
C48         C  0.25294209  0.89903657  0.62059954     0.78300
O49         O  0.21434978  0.87189427  0.74052751    -0.57800
O50         O  0.23903297  0.99193256  0.71299140    -0.56200
O51         O  0.26847630  0.80793564  0.72001220    -0.56200
O52         O  0.27140634  0.91267914  0.64200393    -0.55400
O53         O  0.82009274  0.01674322  0.45748293    -0.56600
C54         C  0.80293275  0.18979319  0.46818851     0.76000
O55         O  0.86022294  0.12772887  0.54789857    -0.57800
C56         C  0.83804650  0.99015002  0.47188793     0.76000
C57         C  0.87246827  0.12937867  0.40826969     0.78400
Cd58       Cd  0.83837649  0.10569904  0.47764926     1.37500
O59         O  0.79673229  0.14117107  0.46746852    -0.56600
O60         O  0.85174268  0.11137768  0.39962314    -0.55400
C61         C  0.84287421  0.11340810  0.57245037     0.78300
O62         O  0.87707894  0.13698455  0.44888011    -0.57800
O63         O  0.82524333  0.19897533  0.47025624    -0.56200
O64         O  0.85536609  0.01677653  0.48717604    -0.56200
O65         O  0.82417458  0.09696309  0.55321848    -0.55400
O66         O  0.80388002  0.77994454  0.46324215    -0.56600
C67         C  0.83930330  0.93129971  0.47254740     0.76000
O68         O  0.86481251  0.79626022  0.55319208    -0.57800
C69         C  0.80953500  0.73148334  0.46987877     0.76000
C70         C  0.88155447  0.79444009  0.41737947     0.78400
Cd71       Cd  0.84427150  0.81601485  0.48137218     1.37500
O72         O  0.82272830  0.90140385  0.45819703    -0.56600
O73         O  0.86016267  0.80727543  0.40711743    -0.55400
C74         C  0.84680170  0.81104174  0.57602909     0.78300
O75         O  0.88600563  0.79042600  0.45836086    -0.57800
O76         O  0.85749731  0.90803115  0.48893514    -0.56200
O77         O  0.83139975  0.72177726  0.47860582    -0.56200
O78         O  0.82836427  0.82662976  0.55510408    -0.55400
O79         O  0.29459187  0.22969993  0.46772503    -0.56600
C80         C  0.25699229  0.08206909  0.47311348     0.76000
O81         O  0.23224192  0.21561736  0.55465182    -0.57800
C82         C  0.28868104  0.27863227  0.46865899     0.76000
C83         C  0.21808262  0.21891729  0.41418848     0.78400
Cd84       Cd  0.25351325  0.19621424  0.48184882     1.37500
O85         O  0.27416925  0.11092225  0.45954162    -0.56600
O86         O  0.23900876  0.20243824  0.40421098    -0.55400
C87         C  0.25007852  0.20011374  0.57769923     0.78300
O88         O  0.21391768  0.22514552  0.45515863    -0.57800
O89         O  0.23881036  0.10603476  0.48882933    -0.56200
O90         O  0.26654387  0.28927650  0.47353266    -0.56200
O91         O  0.26853689  0.18496414  0.55663636    -0.55400
O92         O  0.27511314  0.99642941  0.45677501    -0.56600
C93         C  0.29046580  0.82390173  0.46578719     0.76000
O94         O  0.23546417  0.88619863  0.54841527    -0.57800
C95         C  0.25760890  0.02354077  0.47225348     0.76000
C96         C  0.21983354  0.89181909  0.40981727     0.78400
Cd97       Cd  0.25599146  0.90919227  0.47685656     1.37500
O98         O  0.29700365  0.87221226  0.46310245    -0.56600
O99         O  0.24052867  0.90888668  0.39951989    -0.55400
C100        C  0.25306761  0.90100737  0.57200634     0.78300
O101        O  0.21641174  0.88210222  0.45055473    -0.57800
O102        O  0.26816174  0.81558879  0.46986684    -0.56200
O103        O  0.24017338  0.99778810  0.48828481    -0.56200
O104        O  0.27125525  0.91863859  0.55170789    -0.55400
N105        N  0.01444306  0.79212343  0.09704927    -0.35400
N106        N  0.04979895  0.80290111  0.16622889    -0.56000
N107        N  0.08735301  0.81528799  0.10034963    -0.35400
N108        N  0.05167727  0.80946533  0.03106304    -0.56000
C109        C  0.99997653  0.79831502  0.13261873     0.28200
C110        C  0.00096386  0.80285229  0.06092435     0.28200
C111        C  0.09923601  0.83084733  0.13699511     0.28200
C112        C  0.10041424  0.83149290  0.06517380     0.28200
C113        C  0.03090763  0.78721831  0.19108288     0.36800
C114        C  0.06923324  0.80166282  0.19298890     0.36800
C115        C  0.03323028  0.79637399  0.00431716     0.36800
C116        C  0.07176856  0.80689940  0.00595482     0.36800
C117        C  0.97705538  0.81331813  0.11896931    -0.20700
C118        C  0.97766215  0.81600256  0.07358829    -0.20700
C119        C  0.12019002  0.85696025  0.12494520    -0.20700
C120        C  0.12098472  0.85714084  0.07950625    -0.20700
C121        C  0.03838556  0.77609404  0.23387395    -0.21700
C122        C  0.06268161  0.78544274  0.23511363    -0.21700
C123        C  0.04156555  0.78623428  0.96193049    -0.21700
C124        C  0.06604316  0.79289833  0.96297993    -0.21700
C125        C  0.00668659  0.78821721  0.17682579    -0.17100
C126        C  0.00879077  0.79734532  0.01683440    -0.17100
C127        C  0.09496761  0.82057495  0.02064629    -0.17100
C128        C  0.09238301  0.81921594  0.18091594    -0.17100
H129        H  0.96143543  0.82089271  0.13951898     0.15800
H130        H  0.96260248  0.82585988  0.05230970     0.15800
H131        H  0.13368885  0.87346829  0.14663787     0.15800
H132        H  0.13516236  0.87389187  0.05933329     0.15800
H133        H  0.02738984  0.76377319  0.26157948     0.14100
H134        H  0.07413906  0.78159529  0.26389687     0.14100
H135        H  0.03107468  0.77566074  0.93316571     0.14100
H136        H  0.07819307  0.78855003  0.93519874     0.14100
H137        H  0.03160256  0.77529717  0.09708211     0.27400
H138        H  0.07279742  0.78959181  0.09937615     0.27400
N139        N  0.00857984  0.20576263  0.09768853    -0.35400
N140        N  0.04319986  0.21490299  0.16998779    -0.56000
N141        N  0.08190439  0.22798434  0.10661781    -0.35400
N142        N  0.04759087  0.21350799  0.03440520    -0.56000
C143        C  0.99509044  0.18988002  0.13250019     0.28200
C144        C  0.99744063  0.18867933  0.06062307     0.28200
C145        C  0.09470307  0.22028983  0.14427676     0.28200
C146        C  0.09717637  0.22057723  0.07221435     0.28200
C147        C  0.02239963  0.21836826  0.19307590     0.36800
C148        C  0.06101961  0.22848892  0.19816568     0.36800
C149        C  0.02882849  0.21359918  0.00583737     0.36800
C150        C  0.06735789  0.22614387  0.01053622     0.36800
C151        C  0.97511601  0.16253493  0.11741862    -0.20700
C152        C  0.97660968  0.16173338  0.07203523    -0.20700
C153        C  0.11844462  0.20848117  0.13362073    -0.20700
C154        C  0.12001067  0.20869436  0.08818640    -0.20700
C155        C  0.02702752  0.23417007  0.23610210    -0.21700
C156        C  0.05150396  0.24066482  0.23930251    -0.21700
C157        C  0.03674263  0.22596520  0.96361406    -0.21700
C158        C  0.06113108  0.23378020  0.96655610    -0.21700
C159        C  0.99970276  0.20182591  0.17733441    -0.17100
C160        C  0.00498762  0.19886224  0.01674590    -0.17100
C161        C  0.09126366  0.22598180  0.02684797    -0.17100
C162        C  0.08586324  0.22654946  0.18797864    -0.17100
H163        H  0.96083817  0.14529003  0.13704973     0.15800
H164        H  0.96373267  0.14363027  0.04995014     0.15800
H165        H  0.13315203  0.20069371  0.15625469     0.15800
H166        H  0.13616394  0.20105189  0.06909859     0.15800
H167        H  0.01415068  0.23933847  0.26266778     0.14100
H168        H  0.06122087  0.25207457  0.26874808     0.14100
H169        H  0.02613000  0.22830357  0.93367082     0.14100
H170        H  0.07299879  0.24316888  0.93926159     0.14100
H171        H  0.02304651  0.23175718  0.09903597     0.27400
H172        H  0.06442756  0.24285987  0.10446222     0.27400
O173        O  0.79764025  0.28574356  0.73151875    -0.56600
C174        C  0.75890856  0.43687402  0.73003402     0.76000
O175        O  0.73388633  0.30068768  0.65105370    -0.57800
C176        C  0.79137075  0.23723214  0.73252242     0.76000
C177        C  0.72089961  0.30481115  0.78757494     0.78400
Cd178      Cd  0.75631128  0.32198390  0.72073786     1.37500
O179        O  0.77649845  0.40820924  0.74307576    -0.56600
O180        O  0.74206150  0.32032907  0.79597259    -0.55400
C181        C  0.75099814  0.31595007  0.62639754     0.78300
O182        O  0.71629368  0.29430400  0.74747716    -0.57800
O183        O  0.74105933  0.41248616  0.71429209    -0.56200
O184        O  0.76901501  0.22825376  0.73143885    -0.56200
O185        O  0.76968434  0.33274984  0.64543948    -0.55400
O186        O  0.77589621  0.52360850  0.74548671    -0.56600
C187        C  0.79123708  0.69353860  0.73291656     0.76000
O188        O  0.73493250  0.63148937  0.65113259    -0.57800
C189        C  0.75866072  0.49565209  0.73098353     0.76000
C190        C  0.72048215  0.63906986  0.78930655     0.78400
Cd191      Cd  0.75585740  0.61078255  0.72300058     1.37500
O192        O  0.79711015  0.64480334  0.73730710    -0.56600
O193        O  0.74113096  0.62066304  0.79912116    -0.55400
C194        C  0.75260518  0.61568738  0.62783880     0.78300
O195        O  0.71592816  0.64349952  0.74836798    -0.57800
O196        O  0.76917905  0.70366309  0.72670799    -0.56200
O197        O  0.74072495  0.52083904  0.71556365    -0.56200
O198        O  0.77095499  0.59901472  0.64847816    -0.55400
O199        O  0.32228401  0.48814934  0.73801703    -0.56600
C200        C  0.30701253  0.31695800  0.72891522     0.76000
O201        O  0.36199869  0.38178283  0.64375938    -0.57800
C202        C  0.33927636  0.51565127  0.72183189     0.76000
C203        C  0.37670082  0.37484223  0.78095113     0.78400
Cd204      Cd  0.34120235  0.40069339  0.71529863     1.37500
O205        O  0.30086995  0.36555466  0.73320295    -0.56600
O206        O  0.35596268  0.39175080  0.79167004    -0.55400
C207        C  0.34371541  0.39444931  0.62078780     0.78300
O208        O  0.38079338  0.37017683  0.73984482    -0.57800
O209        O  0.32889493  0.30743267  0.72021610    -0.56200
O210        O  0.35645859  0.49011835  0.70416514    -0.56200
O211        O  0.32484407  0.40785239  0.64150268    -0.55400
O212        O  0.30212138  0.72514128  0.73093863    -0.56600
C213        C  0.33965307  0.57434069  0.72231714     0.76000
O214        O  0.36413788  0.70997993  0.64664987    -0.57800
C215        C  0.30821737  0.77377966  0.73046000     0.76000
C216        C  0.37988724  0.70554741  0.78350953     0.78400
Cd217      Cd  0.34328825  0.68937912  0.71788229     1.37500
O218        O  0.32348348  0.60300234  0.74039291    -0.56600
O219        O  0.35848609  0.69228176  0.79276613    -0.55400
C220        C  0.34560464  0.69925483  0.62390674     0.78300
O221        O  0.38451900  0.71312799  0.74289345    -0.57800
O222        O  0.35671650  0.59872130  0.70369169    -0.56200
O223        O  0.33053066  0.78315854  0.72809262    -0.56200
O224        O  0.32686480  0.68609126  0.64477706    -0.55400
O225        O  0.30106773  0.36968383  0.46152542    -0.56600
C226        C  0.33934826  0.51920686  0.47109628     0.76000
O227        O  0.36239031  0.38352302  0.54965333    -0.57800
C228        C  0.30674577  0.32103538  0.46733224     0.76000
C229        C  0.37818297  0.37538131  0.41399802     0.78400
Cd230      Cd  0.34200024  0.40365126  0.47816385     1.37500
O231        O  0.32182960  0.49143090  0.45757909    -0.56600
O232        O  0.35698643  0.38977985  0.40359836    -0.55400
C233        C  0.34394198  0.39544348  0.57243373     0.78300
O234        O  0.38293597  0.37402363  0.45498117    -0.57800
O235        O  0.35750770  0.49374791  0.48522763    -0.56200
O236        O  0.32870219  0.31077858  0.47469230    -0.56200
O237        O  0.32530494  0.40988703  0.55157322    -0.55400
O238        O  0.32125124  0.60662307  0.46053041    -0.56600
C239        C  0.30783299  0.77947170  0.46731473     0.76000
O240        O  0.36362710  0.70927935  0.55202864    -0.57800
C241        C  0.33914173  0.57803823  0.47222606     0.76000
C242        C  0.37628372  0.71609092  0.41462675     0.78400
Cd243      Cd  0.34148476  0.69319712  0.48116772     1.37500
O244        O  0.30116062  0.73120552  0.46581031    -0.56600
O245        O  0.35548833  0.69939594  0.40495912    -0.55400
C246        C  0.34522048  0.69993173  0.57556470     0.78300
O247        O  0.38064930  0.72307043  0.45538854    -0.57800
O248        O  0.33005195  0.78760049  0.47298932    -0.56200
O249        O  0.35730283  0.60256757  0.48659543    -0.56200
O250        O  0.32593511  0.68927399  0.55543583    -0.55400
O251        O  0.79143455  0.28197846  0.46447662    -0.56600
C252        C  0.75509974  0.43457031  0.47632649     0.76000
O253        O  0.71107667  0.29602481  0.45691800    -0.57800
C254        C  0.78525544  0.23371903  0.46949872     0.76000
C255        C  0.74995720  0.31532429  0.57795581     0.78400
Cd256      Cd  0.75143979  0.32000296  0.48292068     1.37500
O257        O  0.77227104  0.40528107  0.46249302    -0.56600
O258        O  0.76806300  0.33006169  0.55593314    -0.55400
C259        C  0.71539869  0.30349207  0.41612276     0.78300
O260        O  0.73156620  0.30113157  0.55615351    -0.57800
O261        O  0.73681752  0.41092365  0.49143625    -0.56200
O262        O  0.76333065  0.22534563  0.47827233    -0.56200
O263        O  0.73671090  0.31672519  0.40632518    -0.55400
O264        O  0.79703742  0.63994638  0.47045235    -0.56600
C265        C  0.75590058  0.49320518  0.47646775     0.76000
O266        O  0.73503018  0.63246906  0.55595671    -0.57800
C267        C  0.79136098  0.68908349  0.47076790     0.76000
C268        C  0.72065202  0.63270528  0.41542239     0.78400
Cd269      Cd  0.75530417  0.60807046  0.48383985     1.37500
O270        O  0.77388403  0.51973878  0.46304583    -0.56600
O271        O  0.74206380  0.61876047  0.40633328    -0.55400
C272        C  0.75246808  0.61524831  0.57921910     0.78300
O273        O  0.71544272  0.63577520  0.45625870    -0.57800
O274        O  0.73824637  0.51966403  0.49144785    -0.56200
O275        O  0.76920906  0.70022927  0.47464778    -0.56200
O276        O  0.77036793  0.59646042  0.55852154    -0.55400
N277        N  0.50874041  0.30383631  0.09226781    -0.35400
N278        N  0.54768154  0.30335745  0.02812979    -0.56000
N279        N  0.58269719  0.30025631  0.09976260    -0.35400
N280        N  0.54402549  0.30427611  0.16377779    -0.56000
C281        C  0.49644297  0.31696373  0.05509388     0.28200
C282        C  0.49449631  0.31636528  0.12715292     0.28200
C283        C  0.59736903  0.31021027  0.06510837     0.28200
C284        C  0.59534727  0.31027268  0.13699577     0.28200
C285        C  0.52898385  0.30039654  0.99967290     0.36800
C286        C  0.56793139  0.29713468  0.00378951     0.36800
C287        C  0.52373843  0.29746830  0.18774289     0.36800
C288        C  0.56265374  0.29547809  0.19169649     0.36800
C289        C  0.47394905  0.33717624  0.06668175    -0.20700
C290        C  0.47282404  0.33720421  0.11205180    -0.20700
C291        C  0.61967048  0.32649069  0.08055639    -0.20700
C292        C  0.61835694  0.32665370  0.12592989    -0.20700
C293        C  0.53745326  0.29324186  0.95693721    -0.21700
C294        C  0.56208304  0.29090337  0.95957600    -0.21700
C295        C  0.52953163  0.28475388  0.23112107    -0.21700
C296        C  0.55418938  0.28358510  0.23363067    -0.21700
C297        C  0.50457461  0.30935737  0.01102647    -0.17100
C298        C  0.50012739  0.30761625  0.17221922    -0.17100
C299        C  0.58717416  0.30156148  0.18062722    -0.17100
C300        C  0.59165844  0.30200984  0.02009383    -0.17100
H301        H  0.45965197  0.35041339  0.04491948     0.15800
H302        H  0.45763890  0.35062805  0.13165528     0.15800
H303        H  0.63542067  0.33657747  0.06127811     0.15800
H304        H  0.63282705  0.33686680  0.14822761     0.14200
H305        H  0.52707203  0.29141376  0.92674382     0.14100
H306        H  0.57429476  0.28681437  0.93186110     0.14100
H307        H  0.51725390  0.27787649  0.25832032     0.14100
H308        H  0.56467897  0.27557513  0.26308469     0.14100
H309        H  0.52484521  0.28259992  0.09374100     0.27400
H310        H  0.56614161  0.28147844  0.09815179     0.27400
N311        N  0.51318672  0.72205001  0.10391277    -0.35400
N312        N  0.55070269  0.71120259  0.17091842    -0.56000
N313        N  0.58610885  0.69293661  0.10121206    -0.35400
N314        N  0.54912348  0.70975851  0.03400645    -0.56000
C315        C  0.50021495  0.73459798  0.14046049     0.28200
C316        C  0.49932705  0.73323139  0.06817773     0.28200
C317        C  0.60079064  0.69719638  0.13671514     0.28200
C318        C  0.60001223  0.69777089  0.06465537     0.28200
C319        C  0.53129631  0.71282315  0.19793574     0.36800
C320        C  0.56966736  0.69638222  0.19626992     0.36800
C321        C  0.52902536  0.70920912  0.00879390     0.36800
C322        C  0.56762748  0.69490443  0.00750399     0.36800
C323        C  0.47769445  0.75331864  0.12777497    -0.20700
C324        C  0.47712205  0.75240150  0.08226588    -0.20700
C325        C  0.62429956  0.70426655  0.12259064    -0.20700
C326        C  0.62381588  0.70471633  0.07716530    -0.20700
C327        C  0.53810086  0.70008750  0.24081786    -0.21700
C328        C  0.56237769  0.68967045  0.23974708    -0.21700
C329        C  0.53491504  0.69479632  0.96583459    -0.21700
C330        C  0.55935152  0.68583199  0.96503191    -0.21700
C331        C  0.50755708  0.72659954  0.18493850    -0.17100
C332        C  0.50552591  0.72311434  0.02342273    -0.17100
C333        C  0.59209324  0.69267084  0.02038725    -0.17100
C334        C  0.59375647  0.69194485  0.18145214    -0.17100
H335        H  0.46304689  0.76578167  0.14910362     0.15800
H336        H  0.46191827  0.76394161  0.06192990     0.15800
H337        H  0.64022804  0.70815440  0.14288154     0.15800
H338        H  0.63935179  0.70885327  0.05583253     0.15800
H339        H  0.52677229  0.69846789  0.26992256     0.14100
H340        H  0.57342360  0.67873062  0.26785830     0.14100
H341        H  0.52290004  0.69138041  0.93785301     0.14100
H342        H  0.56984407  0.67422091  0.93640979     0.14100
H343        H  0.52922911  0.70168588  0.10349238     0.27400
H344        H  0.56843876  0.68105977  0.10189128     0.27400
C345        C  0.69038621  0.66167261  0.30418459    -0.13200
C346        C  0.66623908  0.66609315  0.31698033     0.17200
C347        C  0.66006827  0.65893312  0.36171673     0.03500
C348        C  0.67809469  0.64880084  0.39302244    -0.11700
C349        C  0.70242056  0.64429402  0.38056266    -0.02700
C350        C  0.70845879  0.65045999  0.33527269     0.02800
C351        C  0.64764287  0.67369570  0.28255676     0.09600
N352        N  0.63551104  0.66010163  0.37574893     0.65900
H353        H  0.67286955  0.64335809  0.42725170     0.18900
N354        N  0.73271564  0.64553450  0.31996294     0.76400
H355        H  0.69519030  0.66605251  0.26962467     0.10400
C356        C  0.63969880  0.72481223  0.26930604     0.04100
C357        C  0.62223684  0.72996934  0.23616101    -0.04600
C358        C  0.61290603  0.68486731  0.21527883    -0.23000
C359        C  0.62144813  0.63386763  0.22748559     0.13300
C360        C  0.63858033  0.62866693  0.26117012    -0.12200
N361        N  0.64947969  0.77182206  0.28849420     0.65000
H362        H  0.61596035  0.76933229  0.22652351     0.12800
N363        N  0.61291310  0.58705368  0.20604188     0.61600
H364        H  0.64497847  0.58929099  0.27052247     0.09000
O365        O  0.74416820  0.68715778  0.31013320    -0.39800
O366        O  0.73994379  0.60125920  0.30508642    -0.39000
O367        O  0.62433562  0.61674874  0.37968910    -0.39000
O368        O  0.62738869  0.70121066  0.39471101    -0.36700
O369        O  0.59737263  0.55875073  0.22520722    -0.37600
O370        O  0.62503727  0.56732314  0.17471139    -0.33800
O371        O  0.66522276  0.79747493  0.26736839    -0.35200
O372        O  0.63815561  0.79462903  0.31937485    -0.39500
C373        C  0.68181120  0.30268697  0.30607758    -0.13200
C374        C  0.65789880  0.30082566  0.32056323     0.17200
C375        C  0.65307750  0.29583974  0.36607648     0.03500
C376        C  0.67212448  0.29537093  0.39636658    -0.11700
C377        C  0.69616887  0.29924291  0.38220510    -0.02700
C378        C  0.70092879  0.30171047  0.33620925     0.02800
C379        C  0.63857299  0.30118505  0.28701555     0.09600
N380        N  0.62905537  0.28987628  0.38212168     0.65900
H381        H  0.66795333  0.29254827  0.43129180     0.18900
N382        N  0.72493027  0.30269311  0.31919403     0.76400
H383        H  0.68566619  0.30493422  0.27097788     0.10400
C384        C  0.62604324  0.34834357  0.27546382     0.04100
C385        C  0.60933267  0.34772794  0.24078738    -0.04600
C386        C  0.60515298  0.30088682  0.21697109    -0.23000
C387        C  0.61793381  0.25402489  0.22811957     0.13300
C388        C  0.63445823  0.25449619  0.26299862    -0.12200
N389        N  0.63074929  0.39753600  0.29735360     0.65000
H390        H  0.59975733  0.38406083  0.23203936     0.12800
N391        N  0.61430824  0.20566556  0.20436856     0.61600
H392        H  0.64439459  0.21839045  0.27103747     0.09000
O393        O  0.73386767  0.34678238  0.30795468    -0.39800
O394        O  0.73406695  0.26021555  0.30417886    -0.39000
O395        O  0.62129637  0.24357936  0.38958832    -0.39000
O396        O  0.61870959  0.32912331  0.40018752    -0.36700
O397        O  0.62930073  0.19205255  0.17504214    -0.37600
O398        O  0.60014990  0.17128897  0.21992872    -0.33800
O399        O  0.64367706  0.43179718  0.27830776    -0.35200
O400        O  0.61726347  0.41195198  0.32877632    -0.39500
C401        C  0.46666933  0.77431859  0.27831611    -0.13200
C402        C  0.45400808  0.72764673  0.28815248     0.17200
C403        C  0.45911020  0.68082439  0.26368128     0.03500
C404        C  0.47630899  0.68187726  0.22991160    -0.11700
C405        C  0.48878511  0.72862840  0.22000508    -0.02700
C406        C  0.48403838  0.77508004  0.24472818     0.02800
C407        C  0.43390661  0.72968149  0.32050575     0.09600
N408        N  0.44726594  0.63163097  0.27300086     0.65900
H409        H  0.48013295  0.64578650  0.21148243     0.18900
N410        N  0.49633550  0.82360212  0.23564940     0.76400
H411        H  0.46254314  0.81088708  0.29578848     0.10400
C412        C  0.43668078  0.74818534  0.36430131     0.04100
C413        C  0.41729911  0.74554705  0.39376601    -0.04600
C414        C  0.39496379  0.72520601  0.38056211    -0.23000
C415        C  0.39170243  0.71108540  0.33575986     0.13300
C416        C  0.41105825  0.71377874  0.30641363    -0.12200
N417        N  0.45907748  0.76825772  0.38009127     0.65000
H418        H  0.42005915  0.75813897  0.42761607     0.12800
N419        N  0.36919306  0.69234168  0.31942810     0.61600
H420        H  0.40821783  0.70274475  0.27223133     0.09000
O421        O  0.51271981  0.83841748  0.26162403    -0.39800
O422        O  0.48660617  0.85742121  0.21025126    -0.39000
O423        O  0.43088364  0.61595472  0.24735509    -0.39000
O424        O  0.45739945  0.59825402  0.29827343    -0.36700
O425        O  0.35557775  0.72425424  0.29874457    -0.37600
O426        O  0.36626395  0.64285508  0.31476607    -0.33800
O427        O  0.46127064  0.81793041  0.38499759    -0.35200
O428        O  0.47288985  0.73737055  0.40136709    -0.39500
C429        C  0.44466475  0.29057420  0.24520702    -0.13200
C430        C  0.44636461  0.33552744  0.27251527     0.17200
C431        C  0.46563885  0.37120138  0.26605583     0.03500
C432        C  0.48253436  0.36153984  0.23276876    -0.11700
C433        C  0.48095578  0.31644376  0.20583806    -0.02700
C434        C  0.46170450  0.28083930  0.21195226     0.02800
C435        C  0.42867379  0.34312277  0.30883770     0.09600
N436        N  0.46837969  0.41759357  0.29281205     0.65900
H437        H  0.49721058  0.38924887  0.22813021     0.18900
N438        N  0.45948087  0.23407337  0.18551795     0.76400
H439        H  0.43038162  0.26208718  0.25043681     0.10400
C440        C  0.40364404  0.34499631  0.30094435     0.04100
C441        C  0.38773017  0.35408362  0.33597090    -0.04600
C442        C  0.39607416  0.36135181  0.37933701    -0.23000
C443        C  0.42109401  0.35689140  0.38754346     0.13300
C444        C  0.43701432  0.34759855  0.35240205    -0.12200
N445        N  0.39399789  0.33976005  0.25741835     0.65000
H446        H  0.36863032  0.35639767  0.32881581     0.12800
N447        N  0.43090064  0.36361092  0.43077646     0.61600
H448        H  0.45610772  0.34413304  0.35925069     0.09000
O449        O  0.46811243  0.19061865  0.19971043    -0.39800
O450        O  0.44370667  0.23313448  0.15553883    -0.39000
O451        O  0.48436680  0.41754795  0.32244115    -0.39000
O452        O  0.46026424  0.46160191  0.27879759    -0.36700
O453        O  0.43572247  0.32280097  0.45368932    -0.37600
O454        O  0.44086188  0.40714362  0.44022001    -0.33800
O455        O  0.38394067  0.29671143  0.24683649    -0.35200
O456        O  0.38940658  0.38135553  0.23535588    -0.39500
C457        C  0.45942321  0.76559970  0.93654885    -0.13200
C458        C  0.44911141  0.71643202  0.92606339     0.17200
C459        C  0.45732349  0.66993386  0.94774299     0.03500
C460        C  0.47528772  0.67345926  0.97997510    -0.11700
C461        C  0.48572434  0.72251598  0.99032457    -0.02700
C462        C  0.47773774  0.76898652  0.96822825     0.02800
C463        C  0.43125020  0.71421131  0.88994898     0.09600
N464        N  0.44871476  0.61853686  0.93559187     0.65900
H465        H  0.48164294  0.63744448  0.99621695     0.18900
N466        N  0.48834028  0.81957317  0.97678470     0.76400
H467        H  0.45352819  0.80137519  0.91939141     0.10400
C468        C  0.40639235  0.71082638  0.89839386     0.04100
C469        C  0.39016967  0.70948612  0.86314829    -0.04600
C470        C  0.39814382  0.71095039  0.81903734    -0.23000
C471        C  0.42315245  0.71514665  0.81069272     0.13300
C472        C  0.43935964  0.71710549  0.84615174    -0.12200
N473        N  0.39721082  0.70896379  0.94248209     0.65000
H474        H  0.37112653  0.70673463  0.87059468     0.12800
N475        N  0.43262611  0.71488751  0.76677949     0.61600
H476        H  0.45848893  0.71995638  0.83944843     0.09000
O477        O  0.47741230  0.85211220  0.00158235    -0.39800
O478        O  0.50437448  0.83663827  0.95089307    -0.39000
O479        O  0.46066104  0.59127615  0.90813856    -0.39000
O480        O  0.43382861  0.59536682  0.96045996    -0.36700
O481        O  0.43922486  0.75825336  0.74955686    -0.37600
O482        O  0.44037468  0.67156785  0.75089100    -0.33800
O483        O  0.38889539  0.75115145  0.95946199    -0.35200
O484        O  0.39096932  0.66461710  0.95836003    -0.39500
C485        C  0.46136692  0.28492329  0.91543963    -0.13200
C486        C  0.45328047  0.33691550  0.90669061     0.17200
C487        C  0.46232359  0.37952805  0.93180255     0.03500
C488        C  0.47949974  0.36970900  0.96458502    -0.11700
C489        C  0.48704013  0.31760331  0.97443191    -0.02700
C490        C  0.47791298  0.27483387  0.94943157     0.02800
C491        C  0.43378984  0.34529906  0.87421591     0.09600
N492        N  0.45379904  0.43281640  0.92525045     0.65900
H493        H  0.48648274  0.40281097  0.98348217     0.18900
N494        N  0.48480055  0.22098479  0.95872609     0.76400
H495        H  0.45414237  0.25184948  0.89682610     0.10400
C496        C  0.43767762  0.33961411  0.82849317     0.04100
C497        C  0.41868451  0.34831665  0.79902031    -0.04600
C498        C  0.39555301  0.36222360  0.81417374    -0.23000
C499        C  0.39147734  0.36531598  0.86035046     0.13300
C500        C  0.41062563  0.35723131  0.88971952    -0.12200
N501        N  0.46092422  0.32656859  0.81124203     0.65000
H502        H  0.42228484  0.34502307  0.76391602     0.12800
N503        N  0.36813979  0.37608852  0.87829288     0.61600
H504        H  0.40736372  0.36000213  0.92498677     0.09000
O505        O  0.49937598  0.19761802  0.93312308    -0.39800
O506        O  0.47171773  0.19342833  0.98395102    -0.39000
O507        O  0.43844908  0.45184598  0.95178006    -0.39000
O508        O  0.46589937  0.46413698  0.90146221    -0.36700
O509        O  0.35528176  0.33753200  0.89060523    -0.37600
O510        O  0.36351358  0.42209229  0.89292720    -0.33800
O511        O  0.46484543  0.27996457  0.79724134    -0.35200
O512        O  0.47451840  0.36378449  0.79882051    -0.39500
C513        C  0.66495161  0.69418197  0.84899066    -0.13200
C514        C  0.66943204  0.67781750  0.89251930     0.17200
C515        C  0.69125156  0.65107820  0.90224379     0.03500
C516        C  0.70751723  0.63902834  0.86822521    -0.11700
C517        C  0.70278952  0.65400405  0.82423926    -0.02700
C518        C  0.68146052  0.68324376  0.81507198     0.02800
C519        C  0.64993539  0.68310489  0.92583114     0.09600
N520        N  0.69754446  0.63737482  0.94667045     0.65900
H521        H  0.72396785  0.61771568  0.87646018     0.18900
N522        N  0.67657772  0.70394578  0.77198198     0.76400
H523        H  0.64827124  0.71476438  0.84104532     0.10400
C524        C  0.63984303  0.73291468  0.93779787     0.04100
C525        C  0.62048872  0.73503042  0.96752732    -0.04600
C526        C  0.61086173  0.68826837  0.98547657    -0.23000
C527        C  0.62051183  0.63855818  0.97269532     0.13300
C528        C  0.63987140  0.63639244  0.94312783    -0.12200
N529        N  0.64945216  0.78173212  0.92131512     0.65000
H530        H  0.61326423  0.77342945  0.97748413     0.12800
N531        N  0.61086231  0.58989939  0.98934142     0.61600
H532        H  0.64689372  0.59783767  0.93310858     0.09000
O533        O  0.68181765  0.75175795  0.76356890    -0.39800
O534        O  0.66185735  0.68010620  0.74737299    -0.39000
O535        O  0.69542088  0.58974527  0.95949777    -0.39000
O536        O  0.71088812  0.66840705  0.96820105    -0.36700
O537        O  0.59590647  0.56478686  0.96611693    -0.37600
O538        O  0.62185296  0.56567084  0.01995685    -0.33800
O539        O  0.63805529  0.80689809  0.89171430    -0.35200
O540        O  0.66475591  0.80616805  0.94426559    -0.39500
C541        C  0.66170506  0.28906511  0.84972967    -0.13200
C542        C  0.66815963  0.30789834  0.89158228     0.17200
C543        C  0.69219861  0.32205718  0.89976851     0.03500
C544        C  0.70909983  0.31896260  0.86565456    -0.11700
C545        C  0.70258860  0.30186944  0.82309947    -0.02700
C546        C  0.67859212  0.28581181  0.81552492     0.02800
C547        C  0.64973983  0.30784630  0.92665251     0.09600
N548        N  0.69999199  0.33828127  0.94263137     0.65900
H549        H  0.72743965  0.33070627  0.87263323     0.18900
N550        N  0.67087568  0.26641851  0.77355083     0.76400
H551        H  0.64332884  0.27684471  0.84356637     0.10400
C552        C  0.63918463  0.35527945  0.94284123     0.04100
C553        C  0.62036440  0.35243091  0.97346074    -0.04600
C554        C  0.61166166  0.30305373  0.98772329    -0.23000
C555        C  0.62191614  0.25572389  0.97095465     0.13300
C556        C  0.64095596  0.25851907  0.94091394    -0.12200
N557        N  0.64619006  0.40638415  0.92660824     0.65000
H558        H  0.61219277  0.38890925  0.98568839     0.12800
N559        N  0.61274492  0.20465981  0.98295396     0.61600
H560        H  0.64859036  0.22193066  0.92777723     0.09000
O561        O  0.66105642  0.29840306  0.74668352    -0.39800
O562        O  0.66784851  0.21699391  0.76859547    -0.39000
O563        O  0.70986076  0.30421658  0.96762913    -0.39000
O564        O  0.70378682  0.38706506  0.94949414    -0.36700
O565        O  0.59776975  0.18250095  0.95775493    -0.37600
O566        O  0.62420508  0.17655730  0.01059116    -0.33800
O567        O  0.63440104  0.42694134  0.89516687    -0.35200
O568        O  0.65831837  0.43638282  0.95132522    -0.39500
C569        C  0.18421076  0.88220488  0.30167624    -0.13200
C570        C  0.16204529  0.86350094  0.31721783     0.17200
C571        C  0.15891077  0.85543395  0.36295528     0.03500
C572        C  0.17794067  0.86528516  0.39201697    -0.11700
C573        C  0.20036074  0.88338644  0.37673755    -0.02700
C574        C  0.20326809  0.89255682  0.33077053     0.02800
C575        C  0.14305987  0.85069997  0.28460262     0.09600
N576        N  0.13681196  0.83588211  0.38061971     0.65900
H577        H  0.17506884  0.85817104  0.42696697     0.18900
N578        N  0.22526836  0.91223536  0.31273563     0.76400
H579        H  0.18676707  0.88865859  0.26653335     0.10400
C580        C  0.12370433  0.88608316  0.27609410     0.04100
C581        C  0.10740803  0.87495349  0.24226455    -0.04600
C582        C  0.10996024  0.82900536  0.21665935    -0.23000
C583        C  0.12903084  0.79323461  0.22506270     0.13300
C584        C  0.14556809  0.80441709  0.25875390    -0.12200
N585        N  0.12065528  0.93437081  0.30036566     0.65000
H586        H  0.09274168  0.90260189  0.23562682     0.12800
N587        N  0.13147165  0.74536943  0.19983856     0.61600
H588        H  0.16046090  0.77715255  0.26468816     0.09000
O589        O  0.22675279  0.96113760  0.30332825    -0.39800
O590        O  0.23984032  0.87983440  0.29506179    -0.39000
O591        O  0.13538058  0.78705578  0.39027177    -0.39000
O592        O  0.12253526  0.86832697  0.39900102    -0.36700
O593        O  0.14370456  0.74574825  0.16466228    -0.37600
O594        O  0.11740811  0.70709944  0.20724407    -0.33800
O595        O  0.12655293  0.97770721  0.28224223    -0.35200
O596        O  0.10549528  0.93546931  0.33143583    -0.39500
C597        C  0.18297700  0.22881764  0.30533176    -0.13200
C598        C  0.16043516  0.24638788  0.32060107     0.17200
C599        C  0.15744798  0.25697183  0.36595821     0.03500
C600        C  0.17674012  0.24957126  0.39509535    -0.11700
C601        C  0.19913060  0.22998763  0.38044962    -0.02700
C602        C  0.20221523  0.21997466  0.33464548     0.02800
C603        C  0.13966323  0.24491973  0.28984076     0.09600
N604        N  0.13463077  0.27264335  0.38357474     0.65900
H605        H  0.17377259  0.25752920  0.42987408     0.18900
N606        N  0.22411591  0.19806720  0.31740130     0.76400
H607        H  0.18529718  0.21928551  0.27064341     0.10400
C608        C  0.13432667  0.28695361  0.26028459     0.04100
C609        C  0.11654194  0.28037140  0.22785255    -0.04600
C610        C  0.10371472  0.23258785  0.22451743    -0.23000
C611        C  0.10853758  0.19125502  0.25509528     0.13300
C612        C  0.12647903  0.19765838  0.28715215    -0.12200
N613        N  0.14672373  0.33649019  0.26269440     0.65000
H614        H  0.11281285  0.31261738  0.20487972     0.12800
N615        N  0.09581457  0.14207843  0.25350493     0.61600
H616        H  0.13055823  0.16496043  0.30949752     0.09000
O617        O  0.23826014  0.22801460  0.29636482    -0.39800
O618        O  0.22589765  0.14824570  0.31251829    -0.39000
O619        O  0.12144712  0.23752957  0.40085018    -0.39000
O620        O  0.13123245  0.32085282  0.39375773    -0.36700
O621        O  0.10542559  0.10262118  0.23442297    -0.37600
O622        O  0.07899651  0.13422279  0.28077736    -0.33800
O623        O  0.16248978  0.34710828  0.23399764    -0.35200
O624        O  0.13756198  0.37397836  0.28496447    -0.39500
C625        C  0.94137636  0.78239584  0.35587358    -0.13200
C626        C  0.93335885  0.78306405  0.31199381     0.17200
C627        C  0.90848096  0.78178927  0.30331781     0.03500
C628        C  0.89213259  0.78344014  0.33838589    -0.11700
C629        C  0.89999610  0.78594655  0.38249398    -0.02700
C630        C  0.92504093  0.78366295  0.39113212     0.02800
C631        C  0.95134421  0.78547189  0.27606164     0.09600
N632        N  0.89942419  0.78123594  0.25913593     0.65900
H633        H  0.87306851  0.78413572  0.33076474     0.18900
N634        N  0.93441177  0.78461871  0.43506187     0.76400
H635        H  0.96052686  0.78171889  0.36281376     0.10400
C636        C  0.96749963  0.82841553  0.27292980     0.04100
C637        C  0.98536673  0.82811809  0.24054177    -0.04600
C638        C  0.98744305  0.78577624  0.21075886    -0.23000
C639        C  0.97096037  0.74331329  0.21307453     0.13300
C640        C  0.95319806  0.74328348  0.24594295    -0.12200
N641        N  0.96553325  0.87349094  0.30147563     0.65000
H642        H  0.99760897  0.86146512  0.23828907     0.12800
N643        N  0.97193453  0.70016771  0.18238448     0.61600
H644        H  0.94097553  0.70993827  0.24826324     0.09000
O645        O  0.94329007  0.82736134  0.44938053    -0.39800
O646        O  0.94035943  0.74112435  0.45321635    -0.39000
O647        O  0.89110116  0.73842665  0.24383983    -0.39000
O648        O  0.89383043  0.82481947  0.24078406    -0.36700
O649        O  0.98181204  0.65687253  0.19395309    -0.37600
O650        O  0.95755642  0.70024946  0.15010460    -0.33800
O651        O  0.98118354  0.88009990  0.33113061    -0.35200
O652        O  0.95256413  0.91252641  0.28970014    -0.39500
C653        C  0.90432161  0.14359150  0.29658412    -0.13200
C654        C  0.92770949  0.15615222  0.31012393     0.17200
C655        C  0.93249956  0.16203971  0.35554529     0.03500
C656        C  0.91415254  0.15387140  0.38652205    -0.11700
C657        C  0.89076647  0.13995646  0.37335653    -0.02700
C658        C  0.88588002  0.13540285  0.32753062     0.02800
C659        C  0.94624551  0.16685418  0.27608140     0.09600
N660        N  0.95564245  0.17812809  0.37086887     0.65900
H661        H  0.91837949  0.15840439  0.42126270     0.18900
N662        N  0.86242317  0.12271892  0.31153564     0.76400
H663        H  0.90034387  0.14018160  0.26162886     0.10400
C664        C  0.96540091  0.13097936  0.26760051     0.04100
C665        C  0.98246471  0.14319193  0.23514222    -0.04600
C666        C  0.98068704  0.19036080  0.21048211    -0.23000
C667        C  0.96123611  0.22557723  0.21806166     0.13300
C668        C  0.94422074  0.21358715  0.25074370    -0.12200
N669        N  0.96737894  0.08115033  0.29029740     0.65000
H670        H  0.99717556  0.11554000  0.22892134     0.12800
N671        N  0.95884022  0.27417952  0.19371983     0.61600
H672        H  0.92942529  0.24111068  0.25665586     0.09000
O673        O  0.85809528  0.07543621  0.30008935    -0.39800
O674        O  0.84885541  0.15984172  0.29787980    -0.39000
O675        O  0.95905639  0.22671131  0.37927486    -0.39000
O676        O  0.96948324  0.14367117  0.38789727    -0.36700
O677        O  0.96566663  0.31708702  0.21118400    -0.37600
O678        O  0.94469853  0.27612090  0.16111740    -0.33800
O679        O  0.95887892  0.04012635  0.27224331    -0.35200
O680        O  0.98344386  0.07549045  0.31942459    -0.39500
C681        C  0.16053732  0.84925857  0.84422854    -0.13200
C682        C  0.16906489  0.83935200  0.88713783     0.17200
C683        C  0.19416095  0.83587220  0.89405587     0.03500
C684        C  0.21002744  0.84602887  0.85896845    -0.11700
C685        C  0.20149053  0.85878398  0.81643677    -0.02700
C686        C  0.17636187  0.85892959  0.80905535     0.02800
C687        C  0.15125911  0.83555195  0.92384526     0.09600
N688        N  0.20395545  0.82398841  0.93663708     0.65900
H689        H  0.22922659  0.84452571  0.86531177     0.18900
N690        N  0.16640920  0.87173057  0.76680831     0.76400
H691        H  0.14131112  0.85082973  0.83815970     0.10400
C692        C  0.13493102  0.87801533  0.93207760     0.04100
C693        C  0.11672068  0.87233609  0.96354282    -0.04600
C694        C  0.11448724  0.82514085  0.98756661    -0.23000
C695        C  0.13077731  0.78286096  0.98034186     0.13300
C696        C  0.14907009  0.78813790  0.94850177    -0.12200
N697        N  0.13683988  0.92777353  0.90936644     0.65000
H698        H  0.10430855  0.90511049  0.96950291     0.12800
N699        N  0.12850850  0.73435404  0.00486742     0.61600
H700        H  0.16112832  0.75485860  0.94222158     0.09000
O701        O  0.15971139  0.91903321  0.75913937    -0.39800
O702        O  0.15854543  0.83466384  0.74284174    -0.39000
O703        O  0.21101481  0.77702894  0.94473002    -0.39000
O704        O  0.21179764  0.86163084  0.95999509    -0.36700
O705        O  0.11192153  0.70238497  0.99508729    -0.37600
O706        O  0.13853120  0.73046774  0.04216796    -0.33800
O707        O  0.12110983  0.94016408  0.88098184    -0.35200
O708        O  0.14938717  0.96408300  0.92630044    -0.39500
C709        C  0.18648145  0.18965646  0.90138502    -0.13200
C710        C  0.16492467  0.21639272  0.89148842     0.17200
C711        C  0.16288584  0.24393494  0.85092465     0.03500
C712        C  0.18163958  0.24124488  0.82004042    -0.11700
C713        C  0.20298740  0.21288217  0.82910417    -0.02700
C714        C  0.20561882  0.18847910  0.87116197     0.02800
C715        C  0.14569874  0.21841234  0.92549030     0.09600
N716        N  0.14184056  0.27441685  0.84022177     0.65900
H717        H  0.17934529  0.26138988  0.78856941     0.18900
N718        N  0.22751966  0.16271579  0.88420950     0.76400
H719        H  0.18866117  0.17040400  0.93327502     0.10400
C720        C  0.13382741  0.17197712  0.94011431     0.04100
C721        C  0.11646918  0.17546702  0.97354605    -0.04600
C722        C  0.11107764  0.22426787  0.99373204    -0.23000
C723        C  0.12355509  0.27033198  0.98036244     0.13300
C724        C  0.14049202  0.26714715  0.94608159    -0.12200
N725        N  0.13905475  0.12097715  0.92139375     0.65000
H726        H  0.10704272  0.13983149  0.98380090     0.12800
N727        N  0.11950063  0.32042526  0.00146837     0.61600
H728        H  0.15006559  0.30271922  0.93617728     0.09000
O729        O  0.22859405  0.11246668  0.88434037    -0.39800
O730        O  0.24251265  0.18847304  0.90687086    -0.39000
O731        O  0.14288219  0.32462911  0.84133461    -0.39000
O732        O  0.12523530  0.25271868  0.81845687    -0.36700
O733        O  0.13253025  0.33291587  0.03392633    -0.37600
O734        O  0.10835622  0.35668251  0.98074775    -0.33800
O735        O  0.15223366  0.08881269  0.94274760    -0.35200
O736        O  0.12538122  0.10312438  0.89172222    -0.39500
C737        C  0.96089126  0.74765150  0.93845427    -0.13200
C738        C  0.95731321  0.79259639  0.91155894     0.17200
C739        C  0.97030708  0.83954623  0.92016341     0.03500
C740        C  0.98691064  0.84032112  0.95481398    -0.11700
C741        C  0.99050495  0.79528806  0.98146572    -0.02700
C742        C  0.97728833  0.74871155  0.97339061     0.02800
C743        C  0.93802080  0.79095272  0.87820073     0.09600
N744        N  0.96602097  0.88751352  0.89576651     0.65900
H745        H  0.99687632  0.87642645  0.96135156     0.18900
N746        N  0.98048345  0.70213587  0.00007453     0.76400
H747        H  0.95063332  0.71178166  0.93258879     0.10400
C748        C  0.94278034  0.79044747  0.83248173     0.04100
C749        C  0.92361432  0.78970257  0.80255168    -0.04600
C750        C  0.89961213  0.78932860  0.81731113    -0.23000
C751        C  0.89503142  0.78656738  0.86328876     0.13300
C752        C  0.91421720  0.78763549  0.89309188    -0.12200
N753        N  0.96685186  0.78974228  0.81576839     0.65000
H754        H  0.92762077  0.79080634  0.76749514     0.12800
N755        N  0.87116662  0.78232366  0.88055692     0.61600
H756        H  0.91048966  0.78629671  0.92827457     0.09000
O757        O  0.99354925  0.66450660  0.98591954    -0.39800
O758        O  0.96596573  0.69334844  0.03132821    -0.39000
O759        O  0.95131939  0.92136329  0.91106484    -0.39000
O760        O  0.98162844  0.90265622  0.86823098    -0.36700
O761        O  0.86308415  0.73671609  0.88966009    -0.37600
O762        O  0.86147658  0.82272139  0.89810108    -0.33800
O763        O  0.97647642  0.74549098  0.80630364    -0.35200
O764        O  0.97515732  0.83155939  0.79848170    -0.39500
C765        C  0.94226545  0.15866791  0.83433402    -0.13200
C766        C  0.93552509  0.15467363  0.87889099     0.17200
C767        C  0.91123852  0.14481857  0.88945471     0.03500
C768        C  0.89435390  0.13853089  0.85575673    -0.11700
C769        C  0.90095994  0.14178143  0.81098424    -0.02700
C770        C  0.92530625  0.15243413  0.80038787     0.02800
C771        C  0.95357991  0.16506598  0.91384749     0.09600
N772        N  0.90343752  0.13952080  0.93426563     0.65900
H773        H  0.87587636  0.13050970  0.86502171     0.18900
N774        N  0.93332500  0.15655883  0.75564927     0.76400
H775        H  0.96077775  0.16746096  0.82582505     0.10400
C776        C  0.97441832  0.13308137  0.91924173     0.04100
C777        C  0.99104566  0.14514300  0.95249699    -0.04600
C778        C  0.98750172  0.18916838  0.98029072    -0.23000
C779        C  0.96691748  0.22174643  0.97421137     0.13300
C780        C  0.95022645  0.20942759  0.94125562    -0.12200
N781        N  0.97872454  0.08754893  0.89203528     0.65000
H782        H  0.00671600  0.11967542  0.95700027     0.12800
N783        N  0.96286754  0.26806330  0.00059673     0.61600
H784        H  0.93466848  0.23519517  0.93662265     0.09000
O785        O  0.94459179  0.11781113  0.73868857    -0.39800
O786        O  0.93511089  0.20211585  0.73822009    -0.39000
O787        O  0.89298612  0.17843574  0.95264589    -0.39000
O788        O  0.90072900  0.09339623  0.95014399    -0.36700
O789        O  0.96962191  0.31269053  0.98603121    -0.37600
O790        O  0.94699784  0.26666619  0.03045306    -0.33800
O791        O  0.99404722  0.09060525  0.86131670    -0.35200
O792        O  0.97254444  0.04220947  0.90593311    -0.39500
loop_ 
_geom_bond_atom_site_label_1 
_geom_bond_atom_site_label_2 
_geom_bond_distance 
_geom_bond_site_symmetry_2 
_ccdc_geom_bond_type 
O1            C4   1.270       .  A
O1           Cd6   2.496       .  S
C2           O11   1.263   1_565  A
C2            O7   1.270   1_565  A
C2           C17   1.476       .  S
O3            C9   1.269       .  A
O3           Cd6   2.502       .  S
C4           O12   1.264       .  A
C4          C176   1.472       .  S
C5           O10   1.269       .  A
C5            O8   1.267       .  A
C5          C769   1.487       .  S
Cd6          O13   2.424       .  S
Cd6          O12   2.461       .  S
Cd6          O11   2.430       .  S
Cd6           O7   2.542       .  S
Cd6          O10   2.498       .  S
Cd6           O8   2.420       .  S
C9           O13   1.264       .  A
C9           C61   1.468       .  S
O14          C17   1.270       .  A
O14         Cd19   2.536       .  S
C15          O24   1.264       .  A
C15          O20   1.270       .  A
C15         C187   1.469       .  S
O16          C22   1.269       .  A
O16         Cd19   2.508       .  S
C17          O25   1.264       .  A
C18          O23   1.269       .  A
C18          O21   1.266       .  A
C18         C750   1.481       .  S
Cd19         O26   2.417       .  S
Cd19         O25   2.432       .  S
Cd19         O24   2.459       .  S
Cd19         O20   2.474       .  S
Cd19         O23   2.446       .  S
Cd19         O21   2.456       .  S
C22          O26   1.264       .  A
C22          C74   1.465       .  S
O27          C30   1.271       .  A
O27         Cd32   2.522       .  S
C28          O37   1.264       .  A
C28          O33   1.270       .  A
C28         C200   1.467       .  S
O29          C35   1.271       .  A
O29         Cd32   2.540       .  S
C30          O38   1.265       .  A
C30          C41   1.474       .  S
C31          O36   1.271       .  A
C31          O34   1.267       .  A
C31         C713   1.488       .  S
Cd32         O39   2.418       .  S
Cd32         O38   2.423       .  S
Cd32         O37   2.456       .  S
Cd32         O33   2.475       .  S
Cd32         O36   2.454       .  S
Cd32         O34   2.475       .  S
C35          O39   1.263       .  A
C35          C87   1.475       .  S
O40          C43   1.270       .  A
O40         Cd45   2.495       .  S
C41          O50   1.264   1_545  A
C41          O46   1.270   1_545  A
O42          C48   1.269       .  A
O42         Cd45   2.514       .  S
C43          O51   1.264       .  A
C43         C215   1.472       .  S
C44          O49   1.269       .  A
C44          O47   1.267       .  A
C44         C685   1.489       .  S
Cd45         O52   2.434       .  S
Cd45         O51   2.459       .  S
Cd45         O50   2.433       .  S
Cd45         O46   2.534       .  S
Cd45         O49   2.494       .  S
Cd45         O47   2.448       .  S
C48          O52   1.263       .  A
C48         C100   1.471       .  S
O53          C56   1.272   1_545  A
O53         Cd58   2.536       .  S
C54          O63   1.264       .  A
C54          O59   1.270       .  A
C54         C254   1.470       .  S
O55          C61   1.269       .  A
O55         Cd58   2.513       .  S
C56          O64   1.264   1_565  A
C56          C67   1.478       .  S
C57          O62   1.270       .  A
C57          O60   1.268       .  A
C57         C657   1.490       .  S
Cd58         O65   2.427       .  S
Cd58         O64   2.432       .  S
Cd58         O63   2.455       .  S
Cd58         O59   2.490       .  S
Cd58         O62   2.452       .  S
Cd58         O60   2.478       .  S
C61          O65   1.264       .  A
O66          C69   1.269       .  A
O66         Cd71   2.488       .  S
C67          O76   1.264       .  A
C67          O72   1.270       .  A
O68          C74   1.268       .  A
O68         Cd71   2.501       .  S
C69          O77   1.264       .  A
C69         C267   1.472       .  S
C70          O75   1.268       .  A
C70          O73   1.267       .  A
C70         C629   1.484       .  S
Cd71         O78   2.413       .  S
Cd71         O77   2.477       .  S
Cd71         O76   2.440       .  S
Cd71         O72   2.542       .  S
Cd71         O75   2.499       .  S
Cd71         O73   2.422       .  S
C74          O78   1.263       .  A
O79          C82   1.269       .  A
O79         Cd84   2.474       .  S
C80          O89   1.264       .  A
C80          O85   1.269       .  A
C80          C95   1.469       .  S
O81          C87   1.270       .  A
O81         Cd84   2.544       .  S
C82          O90   1.264       .  A
C82         C228   1.469       .  S
C83          O88   1.270       .  A
C83          O86   1.267       .  A
C83         C601   1.491       .  S
Cd84         O91   2.427       .  S
Cd84         O90   2.462       .  S
Cd84         O89   2.420       .  S
Cd84         O85   2.513       .  S
Cd84         O88   2.447       .  S
Cd84         O86   2.488       .  S
C87          O91   1.263       .  A
O92          C95   1.272   1_565  A
O92         Cd97   2.513       .  S
C93         O102   1.264       .  A
C93          O98   1.270       .  A
C93         C239   1.469       .  S
O94         C100   1.269       .  A
O94         Cd97   2.513       .  S
C95         O103   1.264   1_545  A
C96         O101   1.270       .  A
C96          O99   1.268       .  A
C96         C573   1.491       .  S
Cd97        O104   2.431       .  S
Cd97        O103   2.409       .  S
Cd97        O102   2.448       .  S
Cd97         O98   2.487       .  S
Cd97        O101   2.441       .  S
Cd97         O99   2.493       .  S
C100        O104   1.264       .  A
N105        C110   1.350       .  A
N105        C109   1.351   1_455  A
N105        H137   1.039       .  S
N106        C113   1.351       .  A
N106        C114   1.350       .  A
N107        C112   1.351       .  A
N107        C111   1.351       .  A
N107        H138   1.038       .  S
N108        C115   1.349       .  A
N108        C116   1.350       .  A
C109        C117   1.387       .  A
C109        C125   1.410   1_655  A
C110        C126   1.409       .  A
C110        C118   1.387   1_455  A
C111        C119   1.388       .  A
C111        C128   1.412       .  A
C112        C127   1.409       .  A
C112        C120   1.386       .  A
C113        C125   1.413       .  A
C113        C121   1.387       .  A
C114        C128   1.410       .  A
C114        C122   1.386       .  A
C115        C123   1.386   1_554  A
C115        C126   1.409       .  A
C116        C124   1.385   1_554  A
C116        C127   1.409       .  A
C117        C118   1.375       .  A
C117        H129   1.082       .  S
C118        H130   1.082       .  S
C119        C120   1.375       .  A
C119        H131   1.082       .  S
C120        H132   1.082       .  S
C121        C122   1.372       .  A
C121        H133   1.082       .  S
C122        H134   1.083       .  S
C123        C124   1.371       .  A
C123        H135   1.082       .  S
C124        H136   1.082       .  S
C125        C638   1.482   1_455  S
C126        C741   1.477   1_454  S
C127        C694   1.479   1_554  S
C128        C582   1.480       .  S
N139        C144   1.353   1_455  A
N139        C143   1.353   1_455  A
N139        H171   1.040       .  S
N140        C147   1.351       .  A
N140        C148   1.353       .  A
N141        C146   1.354       .  A
N141        C145   1.356       .  A
N141        H172   1.039       .  S
N142        C149   1.354       .  A
N142        C150   1.353       .  A
C143        C151   1.387       .  A
C143        C159   1.414       .  A
C144        C160   1.415   1_655  A
C144        C152   1.387       .  A
C145        C153   1.387       .  A
C145        C162   1.418       .  A
C146        C161   1.417       .  A
C146        C154   1.387       .  A
C147        C159   1.414   1_455  A
C147        C155   1.386       .  A
C148        C162   1.414       .  A
C148        C156   1.385       .  A
C149        C157   1.385   1_554  A
C149        C160   1.416       .  A
C150        C158   1.387   1_554  A
C150        C161   1.417       .  A
C151        C152   1.375       .  A
C151        H163   1.082       .  S
C152        H164   1.083       .  S
C153        C154   1.377       .  A
C153        H165   1.082       .  S
C154        H166   1.082       .  S
C155        C156   1.374       .  A
C155        H167   1.082       .  S
C156        H168   1.082       .  S
C157        C158   1.373       .  A
C157        H169   1.082       .  S
C158        H170   1.082       .  S
C159        C666   1.485       .  S
C160        C778   1.492   1_454  S
C161        C722   1.488   1_554  S
C162        C610   1.494       .  S
O173        C176   1.269       .  A
O173       Cd178   2.483       .  S
C174        O183   1.263       .  A
C174        O179   1.271       .  A
C174        C189   1.475       .  S
O175        C181   1.268       .  A
O175       Cd178   2.510       .  S
C176        O184   1.264       .  A
C177        O182   1.269       .  A
C177        O180   1.267       .  A
C177        C545   1.481       .  S
Cd178       O185   2.410       .  S
Cd178       O184   2.470       .  S
Cd178       O183   2.424       .  S
Cd178       O179   2.538       .  S
Cd178       O182   2.468       .  S
Cd178       O180   2.409       .  S
C181        O185   1.263       .  A
C181        C255   1.467       .  S
O186        C189   1.270       .  A
O186       Cd191   2.537       .  S
C187        O196   1.263       .  A
C187        O192   1.270       .  A
O188        C194   1.269       .  A
O188       Cd191   2.517       .  S
C189        O197   1.264       .  A
C190        O195   1.269       .  A
C190        O193   1.268       .  A
C190        C517   1.489       .  S
Cd191       O198   2.422       .  S
Cd191       O197   2.425       .  S
Cd191       O196   2.453       .  S
Cd191       O192   2.490       .  S
Cd191       O195   2.480       .  S
Cd191       O193   2.455       .  S
C194        O198   1.263       .  A
C194        C272   1.471       .  S
O199        C202   1.270       .  A
O199       Cd204   2.522       .  S
C200        O209   1.264       .  A
C200        O205   1.270       .  A
O201        C207   1.269       .  A
O201       Cd204   2.497       .  S
C202        O210   1.264       .  A
C202        C213   1.473       .  S
C203        O208   1.269       .  A
C203        O206   1.266       .  A
C203        C498   1.484       .  S
Cd204       O211   2.417       .  S
Cd204       O210   2.427       .  S
Cd204       O209   2.447       .  S
Cd204       O205   2.473       .  S
Cd204       O208   2.438       .  S
Cd204       O206   2.461       .  S
C207        O211   1.264       .  A
C207        C233   1.463       .  S
O212        C215   1.269       .  A
O212       Cd217   2.481       .  S
C213        O222   1.263       .  A
C213        O218   1.270       .  A
O214        C220   1.270       .  A
O214       Cd217   2.500       .  S
C215        O223   1.265       .  A
C216        O221   1.269       .  A
C216        O219   1.268       .  A
C216        C470   1.485       .  S
Cd217       O224   2.395       .  S
Cd217       O223   2.472       .  S
Cd217       O222   2.427       .  S
Cd217       O218   2.529       .  S
Cd217       O221   2.490       .  S
Cd217       O219   2.420       .  S
C220        O224   1.262       .  A
C220        C246   1.463       .  S
O225        C228   1.270       .  A
O225       Cd230   2.486       .  S
C226        O235   1.264       .  A
C226        O231   1.270       .  A
C226        C241   1.476       .  S
O227        C233   1.268       .  A
O227       Cd230   2.491       .  S
C228        O236   1.264       .  A
C229        O234   1.268       .  A
C229        O232   1.268       .  A
C229        C442   1.485       .  S
Cd230       O237   2.410       .  S
Cd230       O236   2.453       .  S
Cd230       O235   2.435       .  S
Cd230       O231   2.539       .  S
Cd230       O234   2.487       .  S
Cd230       O232   2.428       .  S
C233        O237   1.263       .  A
O238        C241   1.270       .  A
O238       Cd243   2.533       .  S
C239        O248   1.264       .  A
C239        O244   1.270       .  A
O240        C246   1.268       .  A
O240       Cd243   2.507       .  S
C241        O249   1.264       .  A
C242        O247   1.270       .  A
C242        O245   1.266       .  A
C242        C414   1.480       .  S
Cd243       O250   2.408       .  S
Cd243       O249   2.436       .  S
Cd243       O248   2.459       .  S
Cd243       O244   2.471       .  S
Cd243       O247   2.433       .  S
Cd243       O245   2.437       .  S
C246        O250   1.263       .  A
O251        C254   1.270       .  A
O251       Cd256   2.474       .  S
C252        O261   1.264       .  A
C252        O257   1.270       .  A
C252        C265   1.472       .  S
O253        C259   1.271       .  A
O253       Cd256   2.456       .  S
C254        O262   1.265       .  A
C255        O260   1.270       .  A
C255        O258   1.263       .  A
Cd256       O263   2.460       .  S
Cd256       O262   2.464       .  S
Cd256       O261   2.429       .  S
Cd256       O257   2.516       .  S
Cd256       O260   2.519       .  S
Cd256       O258   2.409       .  S
C259        O263   1.266       .  A
C259        C377   1.486       .  S
O264        C267   1.270       .  A
O264       Cd269   2.490       .  S
C265        O274   1.264       .  A
C265        O270   1.270       .  A
O266        C272   1.270       .  A
O266       Cd269   2.528       .  S
C267        O275   1.265       .  A
C268        O273   1.271       .  A
C268        O271   1.267       .  A
C268        C349   1.489       .  S
Cd269       O276   2.426       .  S
Cd269       O275   2.459       .  S
Cd269       O274   2.429       .  S
Cd269       O270   2.518       .  S
Cd269       O273   2.461       .  S
Cd269       O271   2.471       .  S
C272        O276   1.263       .  A
N277        C282   1.354       .  A
N277        C281   1.355       .  A
N277        H309   1.038       .  S
N278        C285   1.352   1_554  A
N278        C286   1.352       .  A
N279        C284   1.353       .  A
N279        C283   1.351       .  A
N279        H310   1.038       .  S
N280        C287   1.351       .  A
N280        C288   1.352       .  A
C281        C289   1.389       .  A
C281        C297   1.420       .  A
C282        C298   1.415       .  A
C282        C290   1.386       .  A
C283        C291   1.389       .  A
C283        C300   1.414       .  A
C284        C299   1.412       .  A
C284        C292   1.386       .  A
C285        C297   1.414   1_556  A
C285        C293   1.387       .  A
C286        C300   1.414       .  A
C286        C294   1.386   1_554  A
C287        C295   1.387       .  A
C287        C298   1.414       .  A
C288        C296   1.385       .  A
C288        C299   1.411       .  A
C289        C290   1.374       .  A
C289        H301   1.081       .  S
C290        H302   1.082       .  S
C291        C292   1.374       .  A
C291        H303   1.082       .  S
C292        H304   1.082       .  S
C293        C294   1.371       .  A
C293        H305   1.082       .  S
C294        H306   1.082       .  S
C295        C296   1.371       .  A
C295        H307   1.082       .  S
C296        H308   1.082       .  S
C297        C489   1.488   1_554  S
C298        C433   1.487       .  S
C299        C386   1.486       .  S
C300        C554   1.480   1_554  S
N311        C316   1.355       .  A
N311        C315   1.355       .  A
N311        H343   1.023       .  S
N312        C319   1.352       .  A
N312        C320   1.352       .  A
N313        C318   1.354       .  A
N313        C317   1.354       .  A
N313        H344   1.028       .  S
N314        C321   1.353       .  A
N314        C322   1.353       .  A
C315        C323   1.386       .  A
C315        C331   1.419       .  A
C316        C332   1.420       .  A
C316        C324   1.387       .  A
C317        C325   1.386       .  A
C317        C334   1.414       .  A
C318        C333   1.416       .  A
C318        C326   1.388       .  A
C319        C331   1.416       .  A
C319        C327   1.387       .  A
C320        C334   1.414       .  A
C320        C328   1.386       .  A
C321        C329   1.388   1_554  A
C321        C332   1.419       .  A
C322        C330   1.385   1_554  A
C322        C333   1.414       .  A
C323        C324   1.377       .  A
C323        H335   1.082       .  S
C324        H336   1.082       .  S
C325        C326   1.374       .  A
C325        H337   1.082       .  S
C326        H338   1.082       .  S
C327        C328   1.371       .  A
C327        H339   1.082       .  S
C328        H340   1.082       .  S
C329        C330   1.374       .  A
C329        H341   1.082       .  S
C330        H342   1.082       .  S
C331        C405   1.487       .  S
C332        C461   1.488   1_554  S
C333        C526   1.487   1_554  S
C334        C358   1.486       .  S
C345        C346   1.399       .  A
C345        C350   1.402       .  A
C345        H355   1.084       .  S
C346        C351   1.478       .  S
C346        C347   1.407       .  A
C347        C348   1.400       .  A
C347        N352   1.428       .  S
C348        C349   1.406       .  A
C348        H353   1.084       .  S
C349        C350   1.418       .  A
C350        N354   1.428       .  S
C351        C356   1.410       .  A
C351        C360   1.401       .  A
N352        O367   1.262       .  A
N352        O368   1.262       .  A
N354        O365   1.262       .  A
N354        O366   1.262       .  A
C356        C357   1.401       .  A
C356        N361   1.428       .  S
C357        C358   1.401       .  A
C357        H362   1.084       .  S
C358        C359   1.409       .  A
C359        C360   1.400       .  A
C359        N363   1.428       .  S
C360        H364   1.084       .  S
N361        O371   1.262       .  A
N361        O372   1.261       .  A
N363        O369   1.262       .  A
N363        O370   1.262       .  A
C373        C374   1.399       .  A
C373        C378   1.400       .  A
C373        H383   1.084       .  S
C374        C379   1.478       .  S
C374        C375   1.408       .  A
C375        C376   1.400       .  A
C375        N380   1.428       .  S
C376        C377   1.406       .  A
C376        H381   1.084       .  S
C377        C378   1.417       .  A
C378        N382   1.429       .  S
C379        C384   1.411       .  A
C379        C388   1.401       .  A
N380        O395   1.262       .  A
N380        O396   1.262       .  A
N382        O393   1.262       .  A
N382        O394   1.262       .  A
C384        C385   1.401       .  A
C384        N389   1.428       .  S
C385        C386   1.401       .  A
C385        H390   1.084       .  S
C386        C387   1.409       .  A
C387        C388   1.399       .  A
C387        N391   1.428       .  S
C388        H392   1.084       .  S
N389        O399   1.262       .  A
N389        O400   1.261       .  A
N391        O397   1.262       .  A
N391        O398   1.262       .  A
C401        C402   1.402       .  A
C401        C406   1.400       .  A
C401        H411   1.083       .  S
C402        C407   1.484       .  S
C402        C403   1.417       .  A
C403        C404   1.398       .  A
C403        N408   1.430       .  S
C404        C405   1.399       .  A
C404        H409   1.084       .  S
C405        C406   1.409       .  A
C406        N410   1.427       .  S
C407        C412   1.414       .  A
C407        C416   1.400       .  A
N408        O423   1.262       .  A
N408        O424   1.262       .  A
N410        O421   1.262       .  A
N410        O422   1.262       .  A
C412        C413   1.399       .  A
C412        N417   1.429       .  S
C413        C414   1.404       .  A
C413        H418   1.084       .  S
C414        C415   1.414       .  A
C415        C416   1.395       .  A
C415        N419   1.428       .  S
C416        H420   1.083       .  S
N417        O427   1.262       .  A
N417        O428   1.262       .  A
N419        O425   1.262       .  A
N419        O426   1.262       .  A
C429        C430   1.404       .  A
C429        C434   1.401       .  A
C429        H439   1.083       .  S
C430        C435   1.485       .  S
C430        C431   1.414       .  A
C431        C432   1.396       .  A
C431        N436   1.429       .  S
C432        C433   1.399       .  A
C432        H437   1.084       .  S
C433        C434   1.410       .  A
C434        N438   1.428       .  S
C435        C440   1.411       .  A
C435        C444   1.402       .  A
N436        O451   1.262       .  A
N436        O452   1.262       .  A
N438        O449   1.262       .  A
N438        O450   1.262       .  A
C440        C441   1.397       .  A
C440        N445   1.429       .  S
C441        C442   1.405       .  A
C441        H446   1.084       .  S
C442        C443   1.415       .  A
C443        C444   1.401       .  A
C443        N447   1.428       .  S
C444        H448   1.083       .  S
N445        O455   1.262       .  A
N445        O456   1.262       .  A
N447        O453   1.262       .  A
N447        O454   1.262       .  A
C457        C458   1.402       .  A
C457        C462   1.401       .  A
C457        H467   1.084       .  S
C458        C463   1.478       .  S
C458        C459   1.409       .  A
C459        C460   1.399       .  A
C459        N464   1.428       .  S
C460        C461   1.401       .  A
C460        H465   1.084       .  S
C461        C462   1.411       .  A
C462        N466   1.428       .  S
C463        C468   1.407       .  A
C463        C472   1.401       .  A
N464        O479   1.262       .  A
N464        O480   1.261       .  A
N466        O477   1.262   1_556  A
N466        O478   1.262       .  A
C468        C469   1.397       .  A
C468        N473   1.428       .  S
C469        C470   1.406       .  A
C469        H474   1.084       .  S
C470        C471   1.416       .  A
C471        C472   1.402       .  A
C471        N475   1.428       .  S
C472        H476   1.084       .  S
N473        O483   1.262       .  A
N473        O484   1.262       .  A
N475        O481   1.262       .  A
N475        O482   1.262       .  A
C485        C486   1.401       .  A
C485        C490   1.401       .  A
C485        H495   1.084       .  S
C486        C491   1.476       .  S
C486        C487   1.409       .  A
C487        C488   1.397       .  A
C487        N492   1.428       .  S
C488        C489   1.401       .  A
C488        H493   1.084       .  S
C489        C490   1.412       .  A
C490        N494   1.428       .  S
C491        C496   1.407       .  A
C491        C500   1.399       .  A
N492        O507   1.262       .  A
N492        O508   1.261       .  A
N494        O505   1.262       .  A
N494        O506   1.262       .  A
C496        C497   1.397       .  A
C496        N501   1.428       .  S
C497        C498   1.405       .  A
C497        H502   1.084       .  S
C498        C499   1.417       .  A
C499        C500   1.399       .  A
C499        N503   1.429       .  S
C500        H504   1.084       .  S
N501        O511   1.262       .  A
N501        O512   1.262       .  A
N503        O509   1.262       .  A
N503        O510   1.262       .  A
C513        C514   1.400       .  A
C513        C518   1.401       .  A
C513        H523   1.084       .  S
C514        C519   1.484       .  S
C514        C515   1.411       .  A
C515        C516   1.401       .  A
C515        N520   1.429       .  S
C516        C517   1.406       .  A
C516        H521   1.084       .  S
C517        C518   1.415       .  A
C518        N522   1.427       .  S
C519        C524   1.413       .  A
C519        C528   1.402       .  A
N520        O535   1.262       .  A
N520        O536   1.262       .  A
N522        O533   1.262       .  A
N522        O534   1.262       .  A
C524        C525   1.401       .  A
C524        N529   1.428       .  S
C525        C526   1.401       .  A
C525        H530   1.084       .  S
C526        C527   1.408       .  A
C527        C528   1.399       .  A
C527        N531   1.427       .  S
C528        H532   1.084       .  S
N529        O539   1.262       .  A
N529        O540   1.262       .  A
N531        O537   1.262       .  A
N531        O538   1.262   1_556  A
C541        C542   1.401       .  A
C541        C546   1.398       .  A
C541        H551   1.084       .  S
C542        C547   1.473       .  S
C542        C543   1.407       .  A
C543        C544   1.396       .  A
C543        N548   1.429       .  S
C544        C545   1.406       .  A
C544        H549   1.084       .  S
C545        C546   1.414       .  A
C546        N550   1.428       .  S
C547        C552   1.411       .  A
C547        C556   1.401       .  A
N548        O563   1.262       .  A
N548        O564   1.261       .  A
N550        O561   1.262       .  A
N550        O562   1.262       .  A
C552        C553   1.398       .  A
C552        N557   1.428       .  S
C553        C554   1.400       .  A
C553        H558   1.084       .  S
C554        C555   1.408       .  A
C555        C556   1.395       .  A
C555        N559   1.428       .  S
C556        H560   1.084       .  S
N557        O567   1.262       .  A
N557        O568   1.262       .  A
N559        O565   1.262       .  A
N559        O566   1.262   1_556  A
C569        C570   1.401       .  A
C569        C574   1.403       .  A
C569        H579   1.084       .  S
C570        C575   1.482       .  S
C570        C571   1.408       .  A
C571        C572   1.399       .  A
C571        N576   1.428       .  S
C572        C573   1.406       .  A
C572        H577   1.084       .  S
C573        C574   1.418       .  A
C574        N578   1.429       .  S
C575        C580   1.412       .  A
C575        C584   1.408       .  A
N576        O591   1.262       .  A
N576        O592   1.262       .  A
N578        O589   1.262       .  A
N578        O590   1.262       .  A
C580        C581   1.397       .  A
C580        N585   1.427       .  S
C581        C582   1.397       .  A
C581        H586   1.084       .  S
C582        C583   1.405       .  A
C583        C584   1.403       .  A
C583        N587   1.430       .  S
C584        H588   1.084       .  S
N585        O595   1.262       .  A
N585        O596   1.261       .  A
N587        O593   1.262       .  A
N587        O594   1.262       .  A
C597        C598   1.402       .  A
C597        C602   1.405       .  A
C597        H607   1.084       .  S
C598        C603   1.483       .  S
C598        C599   1.408       .  A
C599        C600   1.399       .  A
C599        N604   1.427       .  S
C600        C601   1.405       .  A
C600        H605   1.084       .  S
C601        C602   1.419       .  A
C602        N606   1.429       .  S
C603        C608   1.410       .  A
C603        C612   1.401       .  A
N604        O619   1.262       .  A
N604        O620   1.262       .  A
N606        O617   1.262       .  A
N606        O618   1.262       .  A
C608        C609   1.404       .  A
C608        N613   1.428       .  S
C609        C610   1.403       .  A
C609        H614   1.084       .  S
C610        C611   1.412       .  A
C611        C612   1.401       .  A
C611        N615   1.428       .  S
C612        H616   1.084       .  S
N613        O623   1.262       .  A
N613        O624   1.262       .  A
N615        O621   1.262       .  A
N615        O622   1.262       .  A
C625        C626   1.400       .  A
C625        C630   1.400       .  A
C625        H635   1.084       .  S
C626        C631   1.477       .  S
C626        C627   1.407       .  A
C627        C628   1.396       .  A
C627        N632   1.429       .  S
C628        C629   1.406       .  A
C628        H633   1.084       .  S
C629        C630   1.416       .  A
C630        N634   1.428       .  S
C631        C636   1.411       .  A
C631        C640   1.402       .  A
N632        O647   1.262       .  A
N632        O648   1.262       .  A
N634        O645   1.262       .  A
N634        O646   1.262       .  A
C636        C637   1.394       .  A
C636        N641   1.428       .  S
C637        C638   1.399       .  A
C637        H642   1.084       .  S
C638        C639   1.412       .  A
C639        C640   1.400       .  A
C639        N643   1.429       .  S
C640        H644   1.084       .  S
N641        O651   1.262       .  A
N641        O652   1.262       .  A
N643        O649   1.262       .  A
N643        O650   1.262       .  A
C653        C654   1.401       .  A
C653        C658   1.403       .  A
C653        H663   1.084       .  S
C654        C659   1.481       .  S
C654        C655   1.408       .  A
C655        C656   1.399       .  A
C655        N660   1.428       .  S
C656        C657   1.406       .  A
C656        H661   1.083       .  S
C657        C658   1.418       .  A
C658        N662   1.429       .  S
C659        C664   1.412       .  A
C659        C668   1.403       .  A
N660        O675   1.262       .  A
N660        O676   1.261       .  A
N662        O673   1.262       .  A
N662        O674   1.262       .  A
C664        C665   1.399       .  A
C664        N669   1.428       .  S
C665        C666   1.400       .  A
C665        H670   1.084       .  S
C666        C667   1.409       .  A
C667        C668   1.401       .  A
C667        N671   1.428       .  S
C668        H672   1.084       .  S
N669        O679   1.262       .  A
N669        O680   1.261       .  A
N671        O677   1.262       .  A
N671        O678   1.262       .  A
C681        C682   1.403       .  A
C681        C686   1.401       .  A
C681        H691   1.084       .  S
C682        C687   1.489       .  S
C682        C683   1.411       .  A
C683        C684   1.403       .  A
C683        N688   1.428       .  S
C684        C685   1.407       .  A
C684        H689   1.084       .  S
C685        C686   1.413       .  A
C686        N690   1.428       .  S
C687        C692   1.416       .  A
C687        C696   1.408       .  A
N688        O703   1.262       .  A
N688        O704   1.262       .  A
N690        O701   1.262       .  A
N690        O702   1.262       .  A
C692        C693   1.396       .  A
C692        N697   1.428       .  S
C693        C694   1.394       .  A
C693        H698   1.084       .  S
C694        C695   1.406       .  A
C695        C696   1.406       .  A
C695        N699   1.430   1_556  S
C696        H700   1.083       .  S
N697        O707   1.262       .  A
N697        O708   1.261       .  A
N699        O705   1.262   1_554  A
N699        O706   1.262       .  A
C709        C710   1.400       .  A
C709        C714   1.401       .  A
C709        H719   1.084       .  S
C710        C715   1.482       .  S
C710        C711   1.411       .  A
C711        C712   1.400       .  A
C711        N716   1.428       .  S
C712        C713   1.405       .  A
C712        H717   1.084       .  S
C713        C714   1.417       .  A
C714        N718   1.428       .  S
C715        C720   1.413       .  A
C715        C724   1.402       .  A
N716        O731   1.262       .  A
N716        O732   1.262       .  A
N718        O729   1.262       .  A
N718        O730   1.262       .  A
C720        C721   1.399       .  A
C720        N725   1.428       .  S
C721        C722   1.400       .  A
C721        H726   1.084       .  S
C722        C723   1.410       .  A
C723        C724   1.401       .  A
C723        N727   1.427   1_556  S
C724        H728   1.084       .  S
N725        O735   1.262       .  A
N725        O736   1.262       .  A
N727        O733   1.262       .  A
N727        O734   1.262   1_554  A
C737        C738   1.402       .  A
C737        C742   1.396       .  A
C737        H747   1.084       .  S
C738        C743   1.473       .  S
C738        C739   1.411       .  A
C739        C740   1.397       .  A
C739        N744   1.428       .  S
C740        C741   1.399       .  A
C740        H745   1.084       .  S
C741        C742   1.407       .  A
C742        N746   1.428   1_556  S
C743        C748   1.408       .  A
C743        C752   1.399       .  A
N744        O759   1.262       .  A
N744        O760   1.261       .  A
N746        O757   1.262   1_554  A
N746        O758   1.262       .  A
C748        C749   1.398       .  A
C748        N753   1.429       .  S
C749        C750   1.405       .  A
C749        H754   1.084       .  S
C750        C751   1.415       .  A
C751        C752   1.397       .  A
C751        N755   1.429       .  S
C752        H756   1.084       .  S
N753        O763   1.262       .  A
N753        O764   1.261       .  A
N755        O761   1.262       .  A
N755        O762   1.262       .  A
C765        C766   1.402       .  A
C765        C770   1.404       .  A
C765        H775   1.084       .  S
C766        C771   1.483       .  S
C766        C767   1.409       .  A
C767        C768   1.396       .  A
C767        N772   1.429       .  S
C768        C769   1.405       .  A
C768        H773   1.084       .  S
C769        C770   1.416       .  A
C770        N774   1.428       .  S
C771        C776   1.412       .  A
C771        C780   1.401       .  A
N772        O787   1.262       .  A
N772        O788   1.262       .  A
N774        O785   1.262       .  A
N774        O786   1.262       .  A
C776        C777   1.401       .  A
C776        N781   1.428       .  S
C777        C778   1.402       .  A
C777        H782   1.084   1_655  S
C778        C779   1.412       .  A
C779        C780   1.399       .  A
C779        N783   1.428   1_556  S
C780        H784   1.084       .  S
N781        O791   1.262       .  A
N781        O792   1.262       .  A
N783        O789   1.262   1_554  A
N783        O790   1.262       .  A
