geometry optimzed in LAMMPS
_audit_creation_date              2020-12-01 
_audit_creation_method            'lammps2cif' 
_symmetry_space_group_name_H-M    'P1' 
_symmetry_Int_Tables_number       1 
_symmetry_cell_setting            triclinic 
loop_ 
_symmetry_equiv_pos_as_xyz 
  x,y,z 
_cell_length_a                    65.70031212 
_cell_length_b                    65.34582530008245 
_cell_length_c                    33.167354187794324 
_cell_angle_alpha                 89.88880156049156 
_cell_angle_beta                  89.91356269141319 
_cell_angle_gamma                 90.00009101272937 
loop_ 
_atom_site_label 
_atom_site_type_symbol 
_atom_site_fract_x 
_atom_site_fract_y 
_atom_site_fract_z 
_atom_site_charge 
C1          C  0.22965908  0.33062015  0.91422441     0.79600
N2          N  0.23400347  0.31048204  0.92122542    -0.78700
C3          C  0.24070468  0.29811956  0.89102669     0.82100
N4          N  0.24304564  0.30603972  0.85353373    -0.78600
C5          C  0.23906176  0.32589036  0.84514384     0.82200
N6          N  0.23208406  0.33835348  0.87564143    -0.80400
C7          C  0.26933271  0.32755699  0.60810589     0.79600
N8          N  0.26951385  0.30678941  0.60226806    -0.78700
C9          C  0.26466365  0.29372846  0.63303142     0.82100
N10         N  0.25920660  0.30159428  0.66942296    -0.78600
C11         C  0.25870485  0.32203896  0.67632123     0.82200
N12         N  0.26412264  0.33506636  0.64561673    -0.80400
C13         C  0.23723207  0.17670983  0.92272378     0.79600
N14         N  0.23886826  0.19740077  0.92781017    -0.78700
C15         C  0.24533775  0.20966650  0.89716361     0.82100
N16         N  0.25024221  0.20103363  0.86134855    -0.78600
C17         C  0.24859625  0.18066178  0.85478917     0.82200
N18         N  0.24187886  0.16836149  0.88562500    -0.80400
C19         C  0.26931161  0.17016262  0.61559029     0.79600
N20         N  0.26958229  0.19083333  0.60781185    -0.78700
C21         C  0.26739351  0.20463522  0.63847300     0.82100
N22         N  0.26476083  0.19756839  0.67658347    -0.78600
C23         C  0.26425650  0.17736008  0.68539642     0.82200
N24         N  0.26666578  0.16358325  0.65477295    -0.80400
Zr25       Zr  0.31490172  0.95764322  0.21709031     2.17500
O26         O  0.32423169  0.92997274  0.26276419    -0.51900
O27         O  0.31601322  0.98483398  0.26867783    -0.75100
O28         O  0.35145401  0.95658793  0.22820034    -0.81900
O29         O  0.26048436  0.93646555  0.20444667    -0.83700
O30         O  0.36569329  0.97802276  0.18164923    -0.79300
O31         O  0.28162617  0.94595107  0.25290831    -0.90900
O32         O  0.33272209  0.00726122  0.23160675    -0.76900
O33         O  0.33369954  0.98421869  0.18159596    -0.86400
O34         O  0.29163428  0.98587095  0.21094555    -0.86100
O35         O  0.32817135  0.94712534  0.15041570    -0.72800
O36         O  0.29106573  0.93999462  0.17531296    -0.85000
Zr37       Zr  0.29364084  0.98628822  0.07472783     2.26400
Zr38       Zr  0.34581850  0.97528712  0.11540552     2.06300
Zr39       Zr  0.26747960  0.96738894  0.17175860     2.10000
Zr40       Zr  0.31163078  0.01112342  0.17420610     1.78800
O41         O  0.23193378  0.95897554  0.15873794    -0.93800
O42         O  0.34286934  0.02779025  0.15121324    -0.41600
O43         O  0.29351678  0.98593741  0.14299365    -0.78200
O44         O  0.32173066  0.00247372  0.10792366    -0.96900
O45         O  0.31926110  0.96072817  0.07474729    -0.90200
O46         O  0.27659998  0.95761563  0.10725730    -0.93000
C47         C  0.32338499  0.00286199  0.26348806     1.00700
C48         C  0.26374199  0.93908803  0.24130046     1.13600
C49         C  0.36537663  0.96931174  0.21737421     1.04400
O50         O  0.38044546  0.98660412  0.10179818    -0.95200
O51         O  0.34614125  0.99832443  0.04982308    -0.90900
O52         O  0.31748741  0.98842852  0.01879100    -0.84100
C53         C  0.33340299  0.99968832  0.01916046     1.11100
O54         O  0.31861298  0.89990242  0.12116888    -0.97200
Zr55       Zr  0.30237196  0.93260224  0.10702801     1.88900
O56         O  0.26879227  0.96588804  0.03767937    -0.73800
O57         O  0.36179825  0.94445874  0.08933699    -0.53100
O58         O  0.32484168  0.92109162  0.05325522    -0.97800
O59         O  0.27952149  0.90390497  0.11959964    -0.55000
O60         O  0.27762545  0.93265380  0.05028207    -0.74300
C61         C  0.26608198  0.94641601  0.03397640     0.98000
O62         O  0.29018575  0.02037359  0.04564538    -0.63200
O63         O  0.24893316  0.98511922  0.22513965    -0.58000
O64         O  0.27235629  0.01005802  0.10955751    -0.94600
O65         O  0.25309669  0.98385111  0.11712394    -0.93100
O66         O  0.30937900  0.04269065  0.21261139    -0.93400
O67         O  0.28943639  0.03809227  0.15141747    -0.92200
C68         C  0.25746765  0.00171027  0.12643603     1.16800
H69         H  0.28549946  0.99107524  0.23537980     0.32800
H70         H  0.32594000  0.01482868  0.09431894     0.43600
H71         H  0.26349655  0.95153511  0.10201469     0.37200
H72         H  0.33812291  0.93653028  0.15534933     0.33600
H73         H  0.33958205  0.04257125  0.15044537     0.25400
H74         H  0.36709533  0.94848565  0.06251262     0.31400
H75         H  0.31559585  0.91678167  0.03131354     0.37300
H76         H  0.32360085  0.04712185  0.21712791     0.31700
H77         H  0.23436090  0.98289926  0.21909015     0.30600
H78         H  0.23232845  0.94605220  0.14321257     0.32300
H79         H  0.27856390  0.89667293  0.09345718     0.31300
H80         H  0.29474607  0.04055139  0.12400173     0.35300
H81         H  0.27663911  0.02652033  0.05014402     0.28000
H82         H  0.33172569  0.93662598  0.28505950     0.32200
H83         H  0.32070800  0.89987980  0.15072240     0.35100
H84         H  0.25113846  0.97672525  0.24906738     0.27700
H85         H  0.29991892  0.02887346  0.06077454     0.40600
H86         H  0.38014847  0.00152326  0.10695541     0.30600
H87         H  0.35260167  0.02633363  0.17379636     0.38200
H88         H  0.26596384  0.91027046  0.12324431     0.30100
H89         H  0.37407779  0.94260274  0.10621823     0.30200
H90         H  0.33460424  0.92188313  0.24809356     0.30400
Zr91       Zr  0.19939293  0.94821648  0.98047911     2.17500
O92         O  0.17408829  0.94214399  0.03300867    -0.51900
O93         O  0.23032798  0.94884713  0.02258290    -0.75100
O94         O  0.19987128  0.91246932  0.00160441    -0.81900
O95         O  0.18221848  0.00509261  0.96792355    -0.83700
O96         O  0.21075444  0.89235822  0.94944361    -0.79300
O97         O  0.19267087  0.98312561  0.01526571    -0.90900
O98         O  0.24867470  0.92784877  0.98529581    -0.76900
O99         O  0.22185730  0.92539446  0.94329073    -0.86400
O100        O  0.22707480  0.97007896  0.96032925    -0.86100
O101        O  0.18350544  0.93226624  0.92073366    -0.72800
O102        O  0.18000537  0.97141946  0.93967467    -0.85000
Zr103      Zr  0.21768467  0.96066062  0.82754998     2.26400
Zr104      Zr  0.20783509  0.91119760  0.88240487     2.06300
Zr105      Zr  0.20714953  0.99359816  0.92227877     2.10000
Zr106      Zr  0.24851214  0.94598162  0.92375642     1.78800
O107        O  0.19433301  0.02558064  0.89397754    -0.93800
O108        O  0.26464656  0.91221952  0.92053756    -0.41600
O109        O  0.21772239  0.96088101  0.89860132    -0.78200
O110        O  0.23510603  0.93382616  0.86252731    -0.96900
O111        O  0.19129454  0.93661964  0.84037904    -0.90200
O112        O  0.19306973  0.98159520  0.86290718    -0.93000
C113        C  0.24724173  0.93979834  0.01468465     1.00700
C114        C  0.18643748  0.00146932  0.00423954     1.13600
C115        C  0.20640496  0.89529308  0.98755956     1.04400
O116        O  0.21706507  0.87536042  0.87384222    -0.95200
O117        O  0.22872814  0.90502894  0.81660739    -0.90900
O118        O  0.21712813  0.93159470  0.78143468    -0.84100
C119        C  0.22916856  0.91629146  0.78388230     1.11100
O120        O  0.13594566  0.94264124  0.90532576    -0.97200
Zr121      Zr  0.16708099  0.95712098  0.87729708     1.88900
O122        O  0.19379712  0.98257944  0.78978946    -0.73800
O123        O  0.17583966  0.89526585  0.86281006    -0.53100
O124        O  0.14871190  0.93439776  0.83193706    -0.97800
O125        O  0.14206888  0.98238650  0.89887590    -0.55000
O126        O  0.16220987  0.97897860  0.81745567    -0.74300
C127        C  0.17464053  0.98703232  0.79189201     0.98000
O128        O  0.24014408  0.97821768  0.78061277    -0.63200
O129        O  0.22683714  0.01787775  0.96181038    -0.58000
O130        O  0.24897979  0.97461092  0.85578529    -0.94600
O131        O  0.22669160  0.99757962  0.86495936    -0.93100
O132        O  0.27551275  0.96584326  0.95297087    -0.93400
O133        O  0.27538385  0.94701492  0.87349081    -0.92200
C134        C  0.24446697  0.99163167  0.87070768     1.16800
H135        H  0.23408731  0.97730182  0.98143869     0.32800
H136        H  0.24675817  0.92859087  0.84826099     0.43600
H137        H  0.18888264  0.99488355  0.85365966     0.37200
H138        H  0.17303879  0.92314405  0.93060542     0.33600
H139        H  0.27526562  0.91197084  0.94170399     0.25400
H140        H  0.17724239  0.89289525  0.83346023     0.31400
H141        H  0.14371508  0.94329845  0.80988631     0.37300
H142        H  0.28605047  0.95563199  0.96012751     0.31700
H143        H  0.22229508  0.03149418  0.95226103     0.30600
H144        H  0.17932482  0.02457764  0.89591008     0.32300
H145        H  0.13237954  0.98352136  0.87614107     0.31300
H146        H  0.28547847  0.93651398  0.88138241     0.35300
H147        H  0.24538924  0.99098940  0.79230743     0.28000
H148        H  0.18196165  0.93746040  0.05672362     0.32200
H149        H  0.13810752  0.94269414  0.93486737     0.35100
H150        H  0.22123258  0.01717601  0.98908134     0.27700
H151        H  0.25203469  0.96918305  0.77749450     0.40600
H152        H  0.23142813  0.87456319  0.88272326     0.30600
H153        H  0.25433994  0.90203782  0.92907883     0.38200
H154        H  0.14955509  0.99553946  0.89864002     0.30100
H155        H  0.17626388  0.88141585  0.87494236     0.30200
H156        H  0.16631192  0.92998019  0.02414140     0.30400
Zr157      Zr  0.17677381  0.04782327  0.71717148     2.17500
O158        O  0.16874548  0.07623984  0.76198487    -0.51900
O159        O  0.17474630  0.02193696  0.77112542    -0.75100
O160        O  0.14012810  0.05119564  0.72499877    -0.81900
O161        O  0.23173147  0.06586461  0.70320259    -0.83700
O162        O  0.12596503  0.02876899  0.68074149    -0.79300
O163        O  0.21036257  0.05875162  0.75287145    -0.90900
O164        O  0.15781748  0.99949420  0.73492450    -0.76900
O165        O  0.15768632  0.02159912  0.68163570    -0.86400
O166        O  0.19854903  0.01854298  0.71078621    -0.86100
O167        O  0.16325503  0.05847499  0.65059956    -0.72800
O168        O  0.20172934  0.06306025  0.67497954    -0.85000
Zr169      Zr  0.19936971  0.01738481  0.57716091     2.26400
Zr170      Zr  0.14629264  0.03027083  0.61478110     2.06300
Zr171      Zr  0.22461430  0.03469095  0.67179351     2.10000
Zr172      Zr  0.17786402  0.99298102  0.67648362     1.78800
O173        O  0.26097370  0.04266627  0.66844768    -0.93800
O174        O  0.14313329  0.98456474  0.65512690    -0.41600
O175        O  0.20469943  0.00875769  0.64357582    -0.78200
O176        O  0.17011267  0.00275034  0.60985272    -0.96900
O177        O  0.17407065  0.04375347  0.57629411    -0.90200
O178        O  0.21422992  0.04679253  0.60978052    -0.93000
C179        C  0.16746984  0.00388276  0.76642831     1.00700
C180        C  0.22858797  0.06425990  0.74029647     1.13600
C181        C  0.12629215  0.03813518  0.71570444     1.04400
O182        O  0.11174779  0.01818806  0.60303491    -0.95200
O183        O  0.14683495  0.00752180  0.54853891    -0.90900
O184        O  0.17714988  0.01440546  0.51928755    -0.84100
C185        C  0.16008621  0.00496224  0.51878542     1.11100
O186        O  0.17376257  0.10421653  0.63004978    -0.97200
Zr187      Zr  0.18962208  0.07237353  0.60841397     1.88900
O188        O  0.22305924  0.03871939  0.53962534    -0.73800
O189        O  0.12922576  0.05972052  0.58499432    -0.53100
O190        O  0.16769977  0.08608144  0.55575676    -0.97800
O191        O  0.21327187  0.10028750  0.62184084    -0.55000
O192        O  0.21415873  0.07208804  0.55084177    -0.74300
C193        C  0.22580144  0.05810614  0.53538318     0.98000
O194        O  0.19997706  0.98404414  0.54479815    -0.63200
O195        O  0.24276601  0.01876389  0.72785135    -0.58000
O196        O  0.22885825  0.99811402  0.59726769    -0.94600
O197        O  0.24318638  0.02654887  0.61341174    -0.93100
O198        O  0.18488600  0.96332481  0.71863135    -0.93400
O199        O  0.17912580  0.95718596  0.65533595    -0.92200
C200        C  0.24245274  0.00776706  0.61622351     1.16800
H201        H  0.20424637  0.01350760  0.73566632     0.32800
H202        H  0.16533850  0.99066706  0.59639455     0.43600
H203        H  0.22639058  0.05460771  0.60468709     0.37200
H204        H  0.15327128  0.06908303  0.65507620     0.33600
H205        H  0.14215592  0.96945947  0.65566148     0.25400
H206        H  0.12394452  0.05463836  0.55891733     0.31400
H207        H  0.17471814  0.08271739  0.53018133     0.37300
H208        H  0.17150716  0.95897546  0.72957054     0.31700
H209        H  0.25732074  0.01702945  0.72120153     0.30600
H210        H  0.26192890  0.05584076  0.65373317     0.32300
H211        H  0.21694174  0.10585181  0.59501407     0.31300
H212        H  0.17335386  0.95693099  0.62777261     0.35300
H213        H  0.21342267  0.97757433  0.54851059     0.28000
H214        H  0.15935593  0.07056256  0.78252602     0.32200
H215        H  0.17341845  0.10330320  0.65985319     0.35100
H216        H  0.23720956  0.00486428  0.73046328     0.27700
H217        H  0.19032493  0.97552704  0.56032774     0.40600
H218        H  0.11251999  0.00317508  0.60677693     0.30600
H219        H  0.13402963  0.98892196  0.67729139     0.38200
H220        H  0.22582731  0.09347053  0.63144799     0.30100
H221        H  0.11693351  0.06172724  0.60184279     0.30200
H222        H  0.16029095  0.08565719  0.74564504     0.30400
Zr223      Zr  0.29261435  0.05544653  0.48012347     2.17500
O224        O  0.31687692  0.06061482  0.53461078    -0.51900
O225        O  0.26136361  0.05459798  0.52197534    -0.75100
O226        O  0.29166353  0.09105301  0.50235520    -0.81900
O227        O  0.31010440  0.99870114  0.46230988    -0.83700
O228        O  0.28123150  0.11196795  0.45090630    -0.79300
O229        O  0.30139459  0.02003496  0.51209151    -0.90900
O230        O  0.24317341  0.07611200  0.48559442    -0.76900
O231        O  0.27015743  0.07858568  0.44388451    -0.86400
O232        O  0.26501792  0.03386792  0.46000794    -0.86100
O233        O  0.30811005  0.07241452  0.42077091    -0.72800
O234        O  0.31177090  0.03315094  0.43709147    -0.85000
Zr235      Zr  0.27365261  0.04537637  0.32686155     2.26400
Zr236      Zr  0.28371364  0.09397078  0.38347559     2.06300
Zr237      Zr  0.28447290  0.01136942  0.41909727     2.10000
Zr238      Zr  0.24358406  0.05815186  0.42392297     1.78800
O239        O  0.29709356  0.97982884  0.38848787    -0.93800
O240        O  0.22816187  0.09229648  0.42138396    -0.41600
O241        O  0.27077758  0.04137266  0.39485411    -0.78200
O242        O  0.25641598  0.07167470  0.36322506    -0.96900
O243        O  0.30009067  0.06922505  0.33998196    -0.90200
O244        O  0.29867253  0.02427551  0.36059424    -0.93000
C245        C  0.24461584  0.06418981  0.51504481     1.00700
C246        C  0.30750541  0.00190435  0.49940571     1.13600
C247        C  0.28538102  0.10848005  0.48885522     1.04400
O248        O  0.27589243  0.13021111  0.37628544    -0.95200
O249        O  0.26181793  0.10172983  0.31961630    -0.90900
O250        O  0.27420917  0.07607745  0.28410621    -0.84100
C251        C  0.26159963  0.09088078  0.28652324     1.11100
O252        O  0.35526769  0.06332295  0.40429730    -0.97200
Zr253      Zr  0.32458418  0.04852741  0.37544465     1.88900
O254        O  0.29750565  0.02442411  0.28721812    -0.73800
O255        O  0.31617961  0.10851106  0.36270713    -0.53100
O256        O  0.34177209  0.07229619  0.33021165    -0.97800
O257        O  0.35096352  0.02356117  0.39135445    -0.55000
O258        O  0.32914058  0.02737655  0.31470077    -0.74300
C259        C  0.31659426  0.01976809  0.28898586     0.98000
O260        O  0.25293156  0.02754141  0.27708930    -0.63200
O261        O  0.26670499  0.98505451  0.45795984    -0.58000
O262        O  0.24221128  0.03106383  0.35390528    -0.94600
O263        O  0.26448695  0.00808209  0.36169535    -0.93100
O264        O  0.21613339  0.03886169  0.45386295    -0.93400
O265        O  0.21599346  0.05846648  0.37514285    -0.92200
C266        C  0.24665528  0.01377834  0.36785407     1.16800
H267        H  0.25817798  0.02616367  0.48117023     0.32800
H268        H  0.24459720  0.07692816  0.34962342     0.43600
H269        H  0.30271290  0.01110313  0.35061249     0.37200
H270        H  0.31853191  0.08144829  0.43095428     0.33600
H271        H  0.21699131  0.09233494  0.44148772     0.25400
H272        H  0.31350092  0.11448822  0.33577865     0.31400
H273        H  0.34869397  0.06352579  0.31011437     0.37300
H274        H  0.20565812  0.04923117  0.46041894     0.31700
H275        H  0.27013338  0.97202000  0.44441481     0.30600
H276        H  0.31211735  0.98109144  0.38861664     0.32300
H277        H  0.36091431  0.02466084  0.36899085     0.31300
H278        H  0.20568843  0.06823653  0.38529608     0.35300
H279        H  0.24765627  0.01468121  0.28845427     0.28000
H280        H  0.30836521  0.06343941  0.55863066     0.32200
H281        H  0.35304807  0.06272614  0.43380961     0.35100
H282        H  0.27387787  0.98369269  0.48354393     0.27700
H283        H  0.24096192  0.03644588  0.27356471     0.40600
H284        H  0.26190116  0.13162923  0.38707883     0.30600
H285        H  0.23831910  0.10222976  0.43148122     0.38200
H286        H  0.34435923  0.01009944  0.38728948     0.30100
H287        H  0.31812828  0.12046292  0.38059204     0.30200
H288        H  0.32381829  0.07371898  0.52860120     0.30400
Zr289      Zr  0.30014143  0.04954480  0.78968576     2.17500
O290        O  0.30698052  0.07597115  0.73951295    -0.51900
O291        O  0.29915781  0.01855448  0.74699626    -0.75100
O292        O  0.33567067  0.04752964  0.76776642    -0.81900
O293        O  0.24411877  0.06788483  0.80424257    -0.83700
O294        O  0.35578648  0.03748265  0.82078268    -0.79300
O295        O  0.26529703  0.05759111  0.75557085    -0.90900
O296        O  0.32023799  0.00000792  0.78360929    -0.76900
O297        O  0.32269654  0.02680821  0.82679051    -0.86400
O298        O  0.27803896  0.02198910  0.80984610    -0.86100
O299        O  0.31671494  0.06461315  0.84967449    -0.72800
O300        O  0.27762602  0.06916985  0.83160359    -0.85000
Zr301      Zr  0.28844357  0.03039874  0.94253390     2.26400
Zr302      Zr  0.33738075  0.03995228  0.88809413     2.06300
Zr303      Zr  0.25521203  0.04226081  0.84913585     2.10000
Zr304      Zr  0.30221715  0.99997284  0.84527061     1.78800
O305        O  0.22424557  0.05617531  0.87941758    -0.93800
O306        O  0.33628329  0.98465552  0.84731385    -0.41600
O307        O  0.28779086  0.03090569  0.87157601    -0.78200
O308        O  0.31469074  0.01272109  0.90697811    -0.96900
O309        O  0.31260909  0.05676350  0.93049387    -0.90200
O310        O  0.26789133  0.05584640  0.90843488    -0.93000
C311        C  0.30837837  0.00155955  0.75422553     1.00700
C312        C  0.24730111  0.06422647  0.76755728     1.13600
C313        C  0.35279108  0.04126979  0.78245053     1.04400
O314        O  0.37335804  0.03169932  0.89486613    -0.95200
O315        O  0.34357022  0.01821817  0.95365449    -0.90900
O316        O  0.31686602  0.02850098  0.99006368    -0.84100
C317        C  0.33260125  0.01709316  0.98681009     1.11100
O318        O  0.30752062  0.11141030  0.86051321    -0.97200
Zr319      Zr  0.29269965  0.08158705  0.89361195     1.88900
O320        O  0.26766598  0.05494445  0.98153616    -0.73800
O321        O  0.35190311  0.07246142  0.90922877    -0.53100
O322        O  0.31623955  0.10019095  0.93671110    -0.97800
O323        O  0.26814714  0.10823901  0.87689913    -0.55000
O324        O  0.27217180  0.08681517  0.95472875    -0.74300
C325        C  0.26387687  0.07438809  0.98003389     0.98000
O326        O  0.27185459  0.00640863  0.98776370    -0.63200
O327        O  0.22934159  0.02368655  0.81164037    -0.58000
O328        O  0.27409180  0.99991322  0.91090511    -0.94600
O329        O  0.25009678  0.02153997  0.90457355    -0.93100
O330        O  0.28254783  0.97305574  0.81471180    -0.93400
O331        O  0.30187258  0.97260648  0.89487742    -0.92200
C332        C  0.25665962  0.00399099  0.89764954     1.16800
H333        H  0.27065384  0.01522332  0.78867130     0.32800
H334        H  0.31984825  0.00092352  0.92104319     0.43600
H335        H  0.25490704  0.06030344  0.91845603     0.37200
H336        H  0.32600737  0.07492363  0.83975308     0.33600
H337        H  0.33668444  0.97387491  0.82637058     0.25400
H338        H  0.36105532  0.06892229  0.93187897     0.31400
H339        H  0.30849960  0.11236236  0.94571041     0.37300
H340        H  0.29267194  0.96230916  0.80829477     0.31700
H341        H  0.21640235  0.02721544  0.82527361     0.30600
H342        H  0.22341134  0.07054992  0.87009623     0.32300
H343        H  0.27010601  0.11891965  0.89768168     0.31300
H344        H  0.31261562  0.96283371  0.88671736     0.35300
H345        H  0.25975242  0.00009202  0.97561768     0.28000
H346        H  0.31250430  0.06858943  0.71585929     0.32200
H347        H  0.30690373  0.10824164  0.83135290     0.35100
H348        H  0.22796787  0.03079221  0.78590316     0.27700
H349        H  0.28187741  0.99532835  0.99136900     0.40600
H350        H  0.37440266  0.01722393  0.88632050     0.30600
H351        H  0.34616862  0.99519280  0.83848316     0.38200
H352        H  0.25471943  0.10214841  0.88328928     0.30100
H353        H  0.36115894  0.07639228  0.88693515     0.30200
H354        H  0.31865804  0.08379081  0.75036860     0.30400
Zr355      Zr  0.20339285  0.07229328  0.05502997     2.17500
O356        O  0.17451770  0.07957110  0.01115187    -0.51900
O357        O  0.22924708  0.07476000  0.00123642    -0.75100
O358        O  0.19927257  0.10915642  0.04769178    -0.81900
O359        O  0.18854778  0.01591726  0.06908294    -0.83700
O360        O  0.22072538  0.12387828  0.09296956    -0.79300
O361        O  0.19255440  0.03847003  0.01954106    -0.90900
O362        O  0.25183254  0.09222742  0.03632407    -0.76900
O363        O  0.22832821  0.09215775  0.09209595    -0.86400
O364        O  0.23345245  0.05174462  0.06142378    -0.86100
O365        O  0.19186057  0.08535991  0.12124189    -0.72800
O366        O  0.18991638  0.04611668  0.09669124    -0.85000
Zr367      Zr  0.23385133  0.05036852  0.19680659     2.26400
Zr368      Zr  0.21880087  0.10321111  0.15856472     2.06300
Zr369      Zr  0.21933297  0.02465619  0.10049293     2.10000
Zr370      Zr  0.25779251  0.07337637  0.09664219     1.78800
O371        O  0.21235912  0.98797936  0.10198250    -0.93800
O372        O  0.26421272  0.10999887  0.10546451    -0.41600
O373        O  0.24290796  0.04625737  0.13018352    -0.78200
O374        O  0.24695275  0.08033536  0.16319545    -0.96900
O375        O  0.20655374  0.07464995  0.19656917    -0.90200
O376        O  0.20582287  0.03408011  0.16183103    -0.93000
C377        C  0.24728774  0.08201048  0.00551839     1.00700
C378        C  0.18807791  0.01986214  0.03211323     1.13600
C379        C  0.21191440  0.12329625  0.05748802     1.04400
O380        O  0.22730015  0.13864126  0.17365340    -0.95200
O381        O  0.24154124  0.10352752  0.22448220    -0.90900
O382        O  0.23492678  0.07317755  0.25424438    -0.84100
C383        C  0.24432228  0.09033169  0.25432605     1.11100
O384        O  0.14797349  0.07504341  0.14112867    -0.97200
Zr385      Zr  0.17920554  0.05802317  0.16250349     1.88900
O386        O  0.21201409  0.02516564  0.23163997    -0.73800
O387        O  0.18720681  0.11612655  0.18745983    -0.53100
O388        O  0.16655513  0.07672145  0.22086076    -0.97800
O389        O  0.15056897  0.03555311  0.14741103    -0.55000
O390        O  0.17875209  0.03266520  0.21764956    -0.74300
C391        C  0.19268827  0.02156600  0.23419704     0.98000
O392        O  0.26775896  0.05346640  0.22595936    -0.63200
O393        O  0.23975220  0.00479105  0.05326669    -0.58000
O394        O  0.25645225  0.02207865  0.18490431    -0.94600
O395        O  0.22913465  0.00913981  0.16141944    -0.93100
O396        O  0.28666679  0.06272958  0.05621604    -0.93400
O397        O  0.29219364  0.07663404  0.12394979    -0.92200
C398        C  0.24792641  0.00973991  0.16152597     1.16800
H399        H  0.23868864  0.04631438  0.03721346     0.32800
H400        H  0.25864407  0.08595205  0.17660187     0.43600
H401        H  0.19856502  0.02138900  0.16556962     0.37200
H402        H  0.18098101  0.09498041  0.11642063     0.33600
H403        H  0.26733469  0.11231881  0.13424960     0.25400
H404        H  0.19121040  0.12190110  0.21386303     0.31400
H405        H  0.15678398  0.06725802  0.23393429     0.37300
H406        H  0.29235632  0.07554153  0.04482457     0.31700
H407        H  0.23012540  0.99607950  0.03818435     0.30600
H408        H  0.20069385  0.98635981  0.12066567     0.32300
H409        H  0.15401073  0.02223266  0.15992625     0.31300
H410        H  0.29104059  0.08460411  0.14916771     0.35300
H411        H  0.27489363  0.04031334  0.22886324     0.28000
H412        H  0.18041155  0.08611987  0.98687756     0.32200
H413        H  0.14873508  0.08901187  0.15254771     0.35100
H414        H  0.24521763  0.01453535  0.03377235     0.27700
H415        H  0.27598346  0.06132159  0.20639399     0.40600
H416        H  0.24201569  0.13974624  0.16755174     0.30600
H417        H  0.27724476  0.11260676  0.09132015     0.38200
H418        H  0.15152020  0.03297712  0.11805934     0.30100
H419        H  0.18368011  0.12817880  0.17074050     0.30200
H420        H  0.16670909  0.09053961  0.02473201     0.30400
Zr421      Zr  0.19293759  0.95491731  0.29050213     2.17500
O422        O  0.18611154  0.92902394  0.23964575    -0.51900
O423        O  0.19540419  0.98561093  0.24715952    -0.75100
O424        O  0.15749424  0.95785184  0.26822016    -0.81900
O425        O  0.24852546  0.93660866  0.30574513    -0.83700
O426        O  0.13733781  0.96814059  0.32089377    -0.79300
O427        O  0.22721477  0.94566640  0.25647810    -0.90900
O428        O  0.17419953  0.00413472  0.28314468    -0.76900
O429        O  0.17080829  0.97807287  0.32718637    -0.86400
O430        O  0.21571439  0.98218914  0.30924716    -0.86100
O431        O  0.17606405  0.94027093  0.35089274    -0.72800
O432        O  0.21503199  0.93547167  0.33351398    -0.85000
Zr433      Zr  0.20430450  0.97497431  0.44250319     2.26400
Zr434      Zr  0.15541260  0.96546553  0.38824869     2.06300
Zr435      Zr  0.23759741  0.96224843  0.35084918     2.10000
Zr436      Zr  0.19193036  0.00446804  0.34478514     1.78800
O437        O  0.26730889  0.94616554  0.38224181    -0.93800
O438        O  0.15796699  0.01819822  0.33199320    -0.41600
O439        O  0.20800314  0.97680819  0.37442494    -0.78200
O440        O  0.17814852  0.99268202  0.40659196    -0.96900
O441        O  0.18001614  0.94872943  0.43110180    -0.90200
O442        O  0.22454568  0.94900020  0.40988233    -0.93000
C443        C  0.18633668  0.00264149  0.25412819     1.00700
C444        C  0.24520816  0.93944539  0.26886282     1.13600
C445        C  0.14036296  0.96429297  0.28263680     1.04400
O446        O  0.11957733  0.97459269  0.39358302    -0.95200
O447        O  0.14883756  0.98746588  0.45297128    -0.90900
O448        O  0.17498283  0.97564941  0.48825238    -0.84100
C449        C  0.15985654  0.98787174  0.48590396     1.11100
O450        O  0.18521713  0.89266428  0.36631069    -0.97200
Zr451      Zr  0.19983799  0.92340686  0.39572215     1.88900
O452        O  0.22500970  0.95076598  0.48267683    -0.73800
O453        O  0.13987175  0.93375644  0.41140625    -0.53100
O454        O  0.17618148  0.90517634  0.43946692    -0.97800
O455        O  0.22520528  0.89767868  0.37826470    -0.55000
O456        O  0.22060600  0.91873430  0.45681509    -0.74300
C457        C  0.22888121  0.93132865  0.48172219     0.98000
O458        O  0.22249114  0.99677394  0.48938583    -0.63200
O459        O  0.26892041  0.97693052  0.32364415    -0.58000
O460        O  0.21817609  0.00618719  0.41195009    -0.94600
O461        O  0.24191657  0.98452528  0.40438866    -0.93100
O462        O  0.21042263  0.03225729  0.31378070    -0.93400
O463        O  0.18991915  0.03237138  0.39312242    -0.92200
C464        C  0.23539950  0.00210821  0.39744150     1.16800
H465        H  0.22349472  0.98885973  0.28862399     0.32800
H466        H  0.17309110  0.00406607  0.41999702     0.43600
H467        H  0.23755555  0.94480232  0.41999164     0.37200
H468        H  0.16674829  0.92988482  0.34124746     0.33600
H469        H  0.15037793  0.01632393  0.35754766     0.25400
H470        H  0.13280271  0.93754205  0.43670506     0.31400
H471        H  0.18180274  0.90671995  0.46697081     0.37300
H472        H  0.19994189  0.04276186  0.30811150     0.31700
H473        H  0.27728222  0.96560432  0.31303667     0.30600
H474        H  0.26641063  0.93145736  0.37537300     0.32300
H475        H  0.22462752  0.88752668  0.40044419     0.31300
H476        H  0.17628589  0.03864090  0.39031062     0.35300
H477        H  0.23470614  0.00232972  0.47613352     0.28000
H478        H  0.18041906  0.93664254  0.21642236     0.32200
H479        H  0.18727041  0.89436133  0.33690770     0.35100
H480        H  0.26598234  0.98598397  0.30079736     0.27700
H481        H  0.21344209  0.00859306  0.49353022     0.40600
H482        H  0.11895890  0.98905451  0.38468399     0.30600
H483        H  0.15969792  0.03319787  0.32922126     0.38200
H484        H  0.23844314  0.90466541  0.38192899     0.30100
H485        H  0.12878109  0.93112627  0.39191607     0.30200
H486        H  0.17454274  0.92101552  0.25053254     0.30400
Zr487      Zr  0.29034293  0.93202693  0.55456226     2.17500
O488        O  0.31910227  0.92156086  0.51294115    -0.51900
O489        O  0.26376415  0.93046993  0.50185382    -0.75100
O490        O  0.28977697  0.89512830  0.54524047    -0.81900
O491        O  0.31117523  0.98647641  0.56373748    -0.83700
O492        O  0.26775303  0.88226940  0.59205032    -0.79300
O493        O  0.30156702  0.96497891  0.51593125    -0.90900
O494        O  0.24081491  0.91476006  0.53924270    -0.76900
O495        O  0.26331942  0.91500909  0.59133947    -0.86400
O496        O  0.26259471  0.95553327  0.55998278    -0.86100
O497        O  0.30045625  0.91848628  0.62145076    -0.72800
O498        O  0.30702457  0.95655818  0.59614692    -0.85000
Zr499      Zr  0.26091702  0.95630149  0.69489495     2.26400
Zr500      Zr  0.27171557  0.90256449  0.65715099     2.06300
Zr501      Zr  0.28031501  0.98136999  0.59732477     2.10000
Zr502      Zr  0.23561179  0.93670566  0.59497366     1.78800
O503        O  0.28940177  0.01749494  0.60290217    -0.93800
O504        O  0.21410295  0.90960454  0.62263950    -0.41600
O505        O  0.25223008  0.96354544  0.62710253    -0.78200
O506        O  0.24555526  0.92759134  0.66123839    -0.96900
O507        O  0.28599139  0.92985672  0.69592986    -0.90200
O508        O  0.29039886  0.97021570  0.66054196    -0.93000
C509        C  0.24550876  0.92389381  0.50724039     1.00700
C510        C  0.30821835  0.98314409  0.52703840     1.13600
C511        C  0.27631951  0.88196438  0.55635455     1.04400
O512        O  0.25837146  0.86855626  0.67144530    -0.95200
O513        O  0.24894262  0.90332123  0.72244144    -0.90900
O514        O  0.25612048  0.93362780  0.75208050    -0.84100
C515        C  0.24640280  0.91662362  0.75193859     1.11100
O516        O  0.34573086  0.92638734  0.64396491    -0.97200
Zr517      Zr  0.31498573  0.94461486  0.66382677     1.88900
O518        O  0.28240609  0.98009519  0.73158484    -0.73800
O519        O  0.30110638  0.88487348  0.68516075    -0.53100
O520        O  0.32500714  0.92275010  0.71998331    -0.97800
O521        O  0.34511531  0.96582931  0.65413871    -0.55000
O522        O  0.31535467  0.97052793  0.71925704    -0.74300
C523        C  0.30177776  0.98260971  0.73481131     0.98000
O524        O  0.22683425  0.95792452  0.72389935    -0.63200
O525        O  0.26449075  0.00006613  0.54187945    -0.58000
O526        O  0.24212368  0.98564131  0.67120590    -0.94600
O527        O  0.27023136  0.00045367  0.65392207    -0.93100
O528        O  0.20510921  0.94033132  0.55402048    -0.93400
O529        O  0.21219838  0.96281192  0.61595986    -0.92200
C530        C  0.25141287  0.99945188  0.65182171     1.16800
H531        H  0.25798985  0.96127591  0.53486576     0.32800
H532        H  0.23351090  0.92316584  0.67532266     0.43600
H533        H  0.29782600  0.98256281  0.66593750     0.37200
H534        H  0.31063944  0.90806301  0.61709431     0.33600
H535        H  0.20059153  0.91605654  0.62630904     0.25400
H536        H  0.29653191  0.88016332  0.71208440     0.31400
H537        H  0.32021283  0.92998717  0.74442439     0.37300
H538        H  0.19979231  0.92628098  0.55042599     0.31700
H539        H  0.26329810  0.01462987  0.54944013     0.30600
H540        H  0.30299422  0.01761377  0.61577605     0.32300
H541        H  0.35125274  0.96711016  0.68126915     0.31300
H542        H  0.21457182  0.96401702  0.64520690     0.35300
H543        H  0.22077236  0.97146422  0.71837978     0.28000
H544        H  0.31294940  0.91473152  0.48928375     0.32200
H545        H  0.34587363  0.92717524  0.61414156     0.35100
H546        H  0.25043563  0.99500891  0.53946059     0.27700
H547        H  0.21857526  0.94822004  0.70807517     0.40600
H548        H  0.24407133  0.86908156  0.66210333     0.30600
H549        H  0.21223143  0.89984633  0.60014973     0.38200
H550        H  0.33970132  0.97964014  0.64808879     0.30100
H551        H  0.30229002  0.87219933  0.66901356     0.30200
H552        H  0.32583114  0.91042995  0.52822869     0.30400
Zr553      Zr  0.29508450  0.57004630  0.54749782     2.17500
O554        O  0.31986785  0.57842502  0.49548879    -0.51900
O555        O  0.26696913  0.56731311  0.49782310    -0.75100
O556        O  0.30472922  0.53383777  0.51486760    -0.81900
O557        O  0.28671831  0.62548058  0.58693209    -0.83700
O558        O  0.31023882  0.51072611  0.56293258    -0.79300
O559        O  0.29985705  0.60647863  0.53452718    -0.90900
O560        O  0.24295761  0.58709955  0.52498361    -0.76900
O561        O  0.26694700  0.55225073  0.56286304    -0.86400
O562        O  0.27032325  0.59148838  0.58306707    -0.86100
O563        O  0.31154832  0.54631667  0.58950608    -0.72800
O564        O  0.30693111  0.58429611  0.61244285    -0.85000
Zr565      Zr  0.26493880  0.54950719  0.69033289     2.26400
Zr566      Zr  0.28200403  0.52479792  0.59406874     2.06300
Zr567      Zr  0.28043155  0.60286434  0.64951705     2.10000
Zr568      Zr  0.24148155  0.57256315  0.59088884     1.78800
O569        O  0.30909524  0.61823703  0.68466727    -0.93800
O570        O  0.21089102  0.56098256  0.55709219    -0.41600
O571        O  0.25245894  0.57988766  0.65693599    -0.78200
O572        O  0.25285658  0.54261572  0.62343937    -0.96900
O573        O  0.29308357  0.53503684  0.65730268    -0.90200
O574        O  0.29242351  0.57432163  0.68785313    -0.93000
C575        C  0.24926223  0.57581693  0.49699799     1.00700
C576        C  0.29293951  0.62336926  0.54933175     1.13600
C577        C  0.30937079  0.51481560  0.52642433     1.04400
O578        O  0.25947970  0.52019527  0.53720335    -0.95200
O579        O  0.27581862  0.50535739  0.65062542    -0.90900
O580        O  0.24787050  0.51693348  0.67492596    -0.84100
C581        C  0.25692745  0.50460615  0.65123566     1.11100
O582        O  0.34969934  0.57894373  0.63658405    -0.97200
Zr583      Zr  0.32037084  0.55820654  0.65542306     1.88900
O584        O  0.28715107  0.52494092  0.72524423    -0.73800
O585        O  0.28416719  0.48709122  0.59219594    -0.53100
O586        O  0.34915129  0.53624741  0.63891889    -0.97800
O587        O  0.33506293  0.57365549  0.71573324    -0.55000
O588        O  0.31971243  0.52961950  0.70271480    -0.74300
C589        C  0.30621559  0.52015478  0.72379249     0.98000
O590        O  0.23133307  0.54796094  0.72143428    -0.63200
O591        O  0.26418578  0.63605455  0.65917926    -0.58000
O592        O  0.26546481  0.57292072  0.74661866    -0.94600
O593        O  0.25739236  0.60248541  0.71550498    -0.93100
O594        O  0.23361010  0.60812249  0.60664743    -0.93400
O595        O  0.20829796  0.57528626  0.62262089    -0.92200
C596        C  0.25587370  0.58988621  0.74680500     1.16800
H597        H  0.26482328  0.60223059  0.56675452     0.32800
H598        H  0.24010885  0.53545545  0.62129840     0.43600
H599        H  0.29669388  0.57886798  0.71417026     0.37200
H600        H  0.32405892  0.54186334  0.57700545     0.33600
H601        H  0.20592785  0.57287952  0.54140842     0.25400
H602        H  0.28102444  0.48229567  0.56484576     0.31400
H603        H  0.35779996  0.53646211  0.66334189     0.37300
H604        H  0.22726940  0.61362517  0.58182262     0.31700
H605        H  0.27553542  0.64601405  0.65973440     0.30600
H606        H  0.30276881  0.62655105  0.70624257     0.32300
H607        H  0.34922799  0.56849552  0.71649910     0.31300
H608        H  0.21092234  0.58113288  0.64963429     0.35300
H609        H  0.22281257  0.55652198  0.70356141     0.28000
H610        H  0.31481554  0.57134349  0.47110488     0.32200
H611        H  0.35170811  0.57618976  0.60749608     0.35100
H612        H  0.25696991  0.63897225  0.63362952     0.27700
H613        H  0.22572498  0.53399961  0.71881310     0.40600
H614        H  0.26693252  0.52507564  0.51312822     0.30600
H615        H  0.21591972  0.55128800  0.53672895     0.38200
H616        H  0.32833991  0.56667215  0.73869386     0.30100
H617        H  0.29805307  0.48219692  0.59872821     0.30200
H618        H  0.33223345  0.57072923  0.50330369     0.30400
Zr619      Zr  0.18620270  0.54959525  0.29534515     2.17500
O620        O  0.17833033  0.57382919  0.24182558    -0.51900
O621        O  0.19125244  0.51976682  0.25017145    -0.75100
O622        O  0.22233982  0.55882348  0.26299902    -0.81900
O623        O  0.13028196  0.54144407  0.33254101    -0.83700
O624        O  0.24489832  0.56612628  0.31085174    -0.79300
O625        O  0.15008048  0.55179187  0.27895880    -0.90900
O626        O  0.17151755  0.49597928  0.27871940    -0.76900
O627        O  0.20419989  0.52239590  0.31553035    -0.86400
O628        O  0.16487309  0.52515506  0.33232348    -0.86100
O629        O  0.20876267  0.56795353  0.33667990    -0.72800
O630        O  0.17082128  0.56314240  0.35780741    -0.85000
Zr631      Zr  0.20512014  0.52490799  0.44242605     2.26400
Zr632      Zr  0.23070926  0.53898032  0.34601511     2.06300
Zr633      Zr  0.15235635  0.53705134  0.39651849     2.10000
Zr634      Zr  0.18437858  0.49687622  0.34514165     1.78800
O635        O  0.13769032  0.56712524  0.42864556    -0.93800
O636        O  0.18284477  0.46498711  0.38309322    -0.41600
O637        O  0.17588623  0.50978033  0.40945192    -0.78200
O638        O  0.21262634  0.51038673  0.37767965    -0.96900
O639        O  0.21935737  0.55245971  0.40691313    -0.90200
O640        O  0.17967059  0.55145868  0.43572052    -0.93000
C641        C  0.18344774  0.50167165  0.25133761     1.00700
C642        C  0.13279182  0.54642135  0.29427006     1.13600
C643        C  0.24110824  0.56401967  0.27443310     1.04400
O644        O  0.23679741  0.51486716  0.29191712    -0.95200
O645        O  0.24943325  0.53335551  0.40369803    -0.90900
O646        O  0.23647445  0.50556429  0.42694037    -0.84100
C647        C  0.24950878  0.51432188  0.40404703     1.11100
O648        O  0.17471128  0.60767576  0.37785721    -0.97200
Zr649      Zr  0.19557527  0.57904883  0.40051625     1.88900
O650        O  0.22924267  0.54967337  0.47075481    -0.73800
O651        O  0.26814508  0.54211467  0.34549746    -0.53100
O652        O  0.21602014  0.60819879  0.37887817    -0.97800
O653        O  0.17844713  0.59402334  0.45883768    -0.55000
O654        O  0.22370080  0.58210149  0.44847116    -0.74300
C655        C  0.23355590  0.56886519  0.46954243     0.98000
O656        O  0.21455464  0.50384125  0.49948606    -0.63200
O657        O  0.11817738  0.52372641  0.40793377    -0.58000
O658        O  0.17917254  0.52218042  0.49452188    -0.94600
O659        O  0.15113725  0.51286524  0.46056793    -0.93100
O660        O  0.14894267  0.48650542  0.35373754    -0.93400
O661        O  0.20275812  0.46818264  0.31609016    -0.92200
C662        C  0.16283001  0.51159570  0.49291495     1.16800
H663        H  0.15442312  0.51903785  0.31624152     0.32800
H664        H  0.21907104  0.49721632  0.37534426     0.43600
H665        H  0.17475719  0.55582041  0.46175712     0.37200
H666        H  0.21342729  0.58004026  0.32269125     0.33600
H667        H  0.17458711  0.46811598  0.40730358     0.25400
H668        H  0.27317085  0.53881749  0.31827136     0.31400
H669        H  0.21472152  0.61828365  0.40097967     0.37300
H670        H  0.14631137  0.47680224  0.33144855     0.31700
H671        H  0.10887455  0.53493045  0.39989760     0.30600
H672        H  0.12922432  0.56157246  0.45083226     0.32300
H673        H  0.18108835  0.60890405  0.45676360     0.31300
H674        H  0.21406577  0.46564763  0.33511930     0.35300
H675        H  0.22059981  0.49127887  0.48843175     0.28000
H676        H  0.18489982  0.56800560  0.21753097     0.32200
H677        H  0.16049488  0.60319013  0.38239419     0.35100
H678        H  0.11631938  0.51307918  0.38705824     0.27700
H679        H  0.22621291  0.51122922  0.51116759     0.40600
H680        H  0.23209826  0.52150472  0.26693806     0.30600
H681        H  0.17417848  0.45567746  0.36700523     0.38200
H682        H  0.18660017  0.58962246  0.48238900     0.30100
H683        H  0.27248330  0.55631196  0.35148759     0.30200
H684        H  0.18657442  0.58606622  0.24834239     0.30400
Zr685      Zr  0.20221446  0.43708078  0.04857427     2.17500
O686        O  0.17656628  0.42902930  0.99821411    -0.51900
O687        O  0.23065052  0.44104092  0.00000031    -0.75100
O688        O  0.19293633  0.47317377  0.01560849    -0.81900
O689        O  0.20978126  0.38119198  0.08657895    -0.83700
O690        O  0.18733968  0.49641872  0.06341391    -0.79300
O691        O  0.19849603  0.40090762  0.03338147    -0.90900
O692        O  0.25411845  0.42077318  0.02735321    -0.76900
O693        O  0.23018889  0.45496741  0.06473018    -0.86400
O694        O  0.22658275  0.41507671  0.08453101    -0.86100
O695        O  0.18556847  0.46078269  0.09027957    -0.72800
O696        O  0.18964538  0.42238915  0.11262789    -0.85000
Zr697      Zr  0.23078575  0.45551419  0.19236479     2.26400
Zr698      Zr  0.21507785  0.48230688  0.09602872     2.06300
Zr699      Zr  0.21546672  0.40311252  0.15024553     2.10000
Zr700      Zr  0.25512116  0.43439061  0.09377448     1.78800
O701        O  0.18586949  0.38783451  0.18275882    -0.93800
O702        O  0.28880560  0.43662451  0.06269279    -0.41600
O703        O  0.24362455  0.42535943  0.15880703    -0.78200
O704        O  0.24283650  0.46344510  0.12629160    -0.96900
O705        O  0.20338194  0.47103551  0.15835395    -0.90200
O706        O  0.20303805  0.43124811  0.18880212    -0.93000
C707        C  0.24837970  0.43263798  0.99981526     1.00700
C708        C  0.20429185  0.38368182  0.04863247     1.13600
C709        C  0.18829714  0.49218049  0.02696380     1.04400
O710        O  0.23919550  0.48839023  0.04184407    -0.95200
O711        O  0.22097249  0.49957391  0.15553125    -0.90900
O712        O  0.24856956  0.48831248  0.18205129    -0.84100
C713        C  0.23987318  0.50046568  0.15738188     1.11100
O714        O  0.14582395  0.43103347  0.12902033    -0.97200
Zr715      Zr  0.17585939  0.44825768  0.15539855     1.88900
O716        O  0.20930518  0.47989482  0.22859191    -0.73800
O717        O  0.21345909  0.51996327  0.09496370    -0.53100
O718        O  0.14691224  0.47081290  0.14391807    -0.97800
O719        O  0.16082243  0.42994762  0.21233767    -0.55000
O720        O  0.17714508  0.47659059  0.20316803    -0.74300
C721        C  0.19051886  0.48540569  0.22549301     0.98000
O722        O  0.26631499  0.45347202  0.21137871    -0.63200
O723        O  0.22952500  0.36905101  0.16116149    -0.58000
O724        O  0.23008043  0.43294952  0.24968292    -0.94600
O725        O  0.23848836  0.40390104  0.21708377    -0.93100
O726        O  0.26390523  0.40085471  0.12065348    -0.93400
O727        O  0.28653097  0.44789415  0.12040919    -0.92200
C728        C  0.23994983  0.41615858  0.24908368     1.16800
H729        H  0.23257285  0.40436801  0.06876046     0.32800
H730        H  0.25569104  0.47032357  0.12617708     0.43600
H731        H  0.19870966  0.42665767  0.21510573     0.37200
H732        H  0.17316540  0.46540880  0.07762610     0.33600
H733        H  0.29180713  0.42266054  0.05276348     0.25400
H734        H  0.21618925  0.52468459  0.06729230     0.31400
H735        H  0.13855711  0.46959643  0.16868704     0.37300
H736        H  0.26854468  0.39299248  0.09685616     0.31700
H737        H  0.21796891  0.35959203  0.15676759     0.30600
H738        H  0.19002311  0.38598621  0.21121933     0.32300
H739        H  0.14600196  0.43240764  0.21001540     0.31300
H740        H  0.29049350  0.43771281  0.14115805     0.35300
H741        H  0.27037355  0.43914020  0.20618810     0.28000
H742        H  0.18273906  0.43337364  0.97232379     0.32200
H743        H  0.14795398  0.43070781  0.09946247     0.35100
H744        H  0.23870487  0.36668422  0.13793589     0.27700
H745        H  0.27324160  0.46109624  0.18962497     0.40600
H746        H  0.23277046  0.48296029  0.01716613     0.30600
H747        H  0.28751188  0.44507517  0.03817885     0.38200
H748        H  0.16490278  0.43791370  0.23637718     0.30100
H749        H  0.19952044  0.52460334  0.10178305     0.30200
H750        H  0.16554874  0.43906448  0.00312156     0.30400
Zr751      Zr  0.31131428  0.45655858  0.79654152     2.17500
O752        O  0.31937485  0.43233175  0.74324988    -0.51900
O753        O  0.30582675  0.48614391  0.75076820    -0.75100
O754        O  0.27553461  0.44700331  0.76382218    -0.81900
O755        O  0.36729377  0.46401541  0.83230893    -0.83700
O756        O  0.25271210  0.44052029  0.81185787    -0.79300
O757        O  0.34719602  0.45380588  0.77927038    -0.90900
O758        O  0.32546464  0.51047889  0.77774406    -0.76900
O759        O  0.29376726  0.48410669  0.81658596    -0.86400
O760        O  0.33313622  0.48086886  0.83259162    -0.86100
O761        O  0.28875258  0.43833252  0.83850229    -0.72800
O762        O  0.32666062  0.44308537  0.85904073    -0.85000
Zr763      Zr  0.29323639  0.48237480  0.94291792     2.26400
Zr764      Zr  0.26714043  0.46750633  0.84692806     2.06300
Zr765      Zr  0.34582095  0.46890144  0.89665337     2.10000
Zr766      Zr  0.31408020  0.50942517  0.84553219     1.78800
O767        O  0.36104580  0.43902334  0.92854331    -0.93800
O768        O  0.30132115  0.54206969  0.82048195    -0.41600
O769        O  0.32293662  0.49646760  0.90933299    -0.78200
O770        O  0.28544995  0.49608980  0.87733072    -0.96900
O771        O  0.27839311  0.45476203  0.90851547    -0.90200
O772        O  0.31832747  0.45535326  0.93666387    -0.93000
C773        C  0.31343878  0.50432347  0.75085621     1.00700
C774        C  0.36457027  0.45893628  0.79426985     1.13600
C775        C  0.25673086  0.44204853  0.77535442     1.04400
O776        O  0.26243219  0.49154602  0.79223318    -0.95200
O777        O  0.24882966  0.47314277  0.90505786    -0.90900
O778        O  0.26150855  0.50108493  0.92776518    -0.84100
C779        C  0.24862824  0.49217661  0.90503276     1.11100
O780        O  0.32392337  0.40010955  0.88064690    -0.97200
Zr781      Zr  0.30189136  0.42789888  0.90282994     1.88900
O782        O  0.26967513  0.45865475  0.97623001    -0.73800
O783        O  0.22966155  0.46506897  0.84485791    -0.53100
O784        O  0.28179495  0.39798570  0.88470498    -0.97800
O785        O  0.31829562  0.41305379  0.96209658    -0.55000
O786        O  0.27333958  0.42658142  0.95034144    -0.74300
C787        C  0.26441195  0.43972858  0.97318011     0.98000
O788        O  0.28494625  0.50890705  0.99117947    -0.63200
O789        O  0.37977433  0.48299918  0.90646516    -0.58000
O790        O  0.31939852  0.48311001  0.99459065    -0.94600
O791        O  0.34722170  0.49295320  0.96069044    -0.93100
O792        O  0.34957571  0.52019582  0.84919888    -0.93400
O793        O  0.31374902  0.53475445  0.89917361    -0.92200
C794        C  0.33552123  0.49394710  0.99309716     1.16800
H795        H  0.34337865  0.48692331  0.81571862     0.32800
H796        H  0.27893382  0.50922175  0.87517226     0.43600
H797        H  0.32328867  0.45075946  0.96250879     0.37200
H798        H  0.28393446  0.42617277  0.82507454     0.33600
H799        H  0.31215829  0.55200556  0.82729782     0.25400
H800        H  0.22501621  0.46815470  0.81727057     0.31400
H801        H  0.28175128  0.38936868  0.90930005     0.37300
H802        H  0.35018388  0.53284369  0.83274646     0.31700
H803        H  0.38924709  0.47209501  0.89768070     0.30600
H804        H  0.36427987  0.44358398  0.95625456     0.32300
H805        H  0.31636349  0.39809565  0.95937658     0.31300
H806        H  0.32738252  0.54119639  0.89882252     0.35300
H807        H  0.28204596  0.52116933  0.97476310     0.28000
H808        H  0.31336079  0.43842979  0.71864541     0.32200
H809        H  0.33772552  0.40407597  0.88970335     0.35100
H810        H  0.38107625  0.49382574  0.88569072     0.27700
H811        H  0.27168433  0.50488621  0.00278333     0.40600
H812        H  0.26663424  0.48437547  0.76748308     0.30600
H813        H  0.30183760  0.54150562  0.79081169     0.38200
H814        H  0.30942933  0.41687874  0.98503075     0.30100
H815        H  0.22495790  0.45105258  0.85152288     0.30200
H816        H  0.31071770  0.42028761  0.74916393     0.30400
Zr817      Zr  0.29509659  0.44081475  0.47854630     2.17500
O818        O  0.31940229  0.43305484  0.53168021    -0.51900
O819        O  0.26547200  0.44568208  0.52419499    -0.75100
O820        O  0.30446780  0.47717798  0.51037743    -0.81900
O821        O  0.28697470  0.38443355  0.44211380    -0.83700
O822        O  0.31123500  0.50004918  0.46230152    -0.79300
O823        O  0.29686121  0.40449119  0.49554294    -0.90900
O824        O  0.24181191  0.42579611  0.49606237    -0.76900
O825        O  0.26805292  0.45890643  0.45844502    -0.86400
O826        O  0.27078535  0.41934820  0.44182060    -0.86100
O827        O  0.31332188  0.46338399  0.43641993    -0.72800
O828        O  0.30846139  0.42508906  0.41625703    -0.85000
Zr829      Zr  0.27020814  0.45922625  0.33134131     2.26400
Zr830      Zr  0.28451461  0.48540734  0.42703795     2.06300
Zr831      Zr  0.28256332  0.40640744  0.37800603     2.10000
Zr832      Zr  0.24256042  0.43892958  0.42965496     1.78800
O833        O  0.31243128  0.39175788  0.34547201    -0.93800
O834        O  0.21463398  0.45824232  0.45896313    -0.41600
O835        O  0.25540018  0.42993298  0.36545409    -0.78200
O836        O  0.25603453  0.46709194  0.39629160    -0.96900
O837        O  0.29773023  0.47364514  0.36616935    -0.90200
O838        O  0.29671275  0.43373719  0.33801381    -0.93000
C839        C  0.24753517  0.43766598  0.52347716     1.00700
C840        C  0.29169999  0.38704651  0.48036371     1.13600
C841        C  0.30949489  0.49609498  0.49880440     1.04400
O842        O  0.26048195  0.49144159  0.48117742    -0.95200
O843        O  0.27863763  0.50383515  0.36884296    -0.90900
O844        O  0.25091700  0.49077521  0.34637660    -0.84100
C845        C  0.25970449  0.50394799  0.36884047     1.11100
O846        O  0.35180648  0.42760563  0.39511362    -0.97200
Zr847      Zr  0.32418645  0.44973369  0.37273084     1.88900
O848        O  0.29478073  0.48330373  0.30169262    -0.73800
O849        O  0.28770114  0.52304341  0.42624720    -0.53100
O850        O  0.35367694  0.46972542  0.39349780    -0.97800
O851        O  0.33925923  0.43205014  0.31516866    -0.55000
O852        O  0.32702865  0.47781454  0.32405448    -0.74300
C853        C  0.31387278  0.48769160  0.30291706     0.98000
O854        O  0.24869237  0.46835538  0.27490766    -0.63200
O855        O  0.27017155  0.37175182  0.36668454    -0.58000
O856        O  0.26748109  0.43270434  0.28025421    -0.94600
O857        O  0.25801034  0.40483822  0.31507046    -0.93100
O858        O  0.22956133  0.40398579  0.42871687    -0.93400
O859        O  0.21276106  0.43652768  0.38650708    -0.92200
C860        C  0.25677461  0.41641346  0.28244142     1.16800
H861        H  0.26465054  0.40882744  0.45788017     0.32800
H862        H  0.24293115  0.47355226  0.39872116     0.43600
H863        H  0.30103971  0.42874550  0.31200871     0.37200
H864        H  0.32531732  0.46832142  0.45004649     0.33600
H865        H  0.21049874  0.46801183  0.43768414     0.25400
H866        H  0.28517281  0.52830675  0.45363645     0.31400
H867        H  0.36129439  0.47247451  0.36828222     0.37300
H868        H  0.21614202  0.40480769  0.44226357     0.31700
H869        H  0.28133447  0.36264751  0.37566202     0.30600
H870        H  0.30736697  0.38675420  0.31917157     0.32300
H871        H  0.35398954  0.43514439  0.31668912     0.31300
H872        H  0.21622441  0.42643330  0.36535928     0.35300
H873        H  0.23626654  0.47448903  0.28617922     0.28000
H874        H  0.31254461  0.43752795  0.55676769     0.32200
H875        H  0.35122212  0.42815224  0.42492776     0.35100
H876        H  0.25924595  0.36979720  0.38692648     0.27700
H877        H  0.25590495  0.48002140  0.26258886     0.40600
H878        H  0.26715041  0.48683808  0.50616267     0.30600
H879        H  0.20319245  0.44843321  0.46108544     0.38200
H880        H  0.33455708  0.43975417  0.29119922     0.30100
H881        H  0.30173269  0.52714868  0.41874960     0.30200
H882        H  0.33051580  0.44309261  0.52765635     0.30400
Zr883      Zr  0.18324802  0.45638180  0.72683298     2.17500
O884        O  0.17467726  0.43082733  0.77759419    -0.51900
O885        O  0.18691580  0.48476350  0.77551618    -0.75100
O886        O  0.21937453  0.44696845  0.75900367    -0.81900
O887        O  0.12737911  0.46507564  0.68959702    -0.83700
O888        O  0.24234205  0.44065093  0.71111762    -0.79300
O889        O  0.14708518  0.45317892  0.74203771    -0.90900
O890        O  0.16739575  0.50884478  0.74768342    -0.76900
O891        O  0.20146520  0.48430686  0.71062274    -0.86400
O892        O  0.16178165  0.48126915  0.69106668    -0.86100
O893        O  0.20670380  0.43935935  0.68520624    -0.72800
O894        O  0.16851394  0.44403098  0.66288527    -0.85000
Zr895      Zr  0.20174579  0.48497611  0.58293710     2.26400
Zr896      Zr  0.22847486  0.46882959  0.67909252     2.06300
Zr897      Zr  0.14945072  0.47033551  0.62583844     2.10000
Zr898      Zr  0.18139518  0.50969687  0.68155892     1.78800
O899        O  0.13315341  0.44117237  0.59371061    -0.93800
O900        O  0.18385435  0.54356559  0.71236617    -0.41600
O901        O  0.17202581  0.49826216  0.61685785    -0.78200
O902        O  0.20995993  0.49684981  0.64881352    -0.96900
O903        O  0.21708919  0.45735244  0.61680608    -0.90200
O904        O  0.17727117  0.45742659  0.58704709    -0.93000
C905        C  0.17876272  0.50267792  0.77556699     1.00700
C906        C  0.12999807  0.45962211  0.72753684     1.13600
C907        C  0.23823349  0.44200415  0.74760431     1.04400
O908        O  0.23479220  0.49276776  0.73347100    -0.95200
O909        O  0.24553751  0.47480183  0.61925189    -0.90900
O910        O  0.23463176  0.50255802  0.59211842    -0.84100
C911        C  0.24663831  0.49378811  0.61692734     1.11100
O912        O  0.17335158  0.40084444  0.64011468    -0.97200
Zr913      Zr  0.19421598  0.42993931  0.61998886     1.88900
O914        O  0.22573901  0.46345829  0.54618156    -0.73800
O915        O  0.26593147  0.46746079  0.67996294    -0.53100
O916        O  0.21579085  0.40089949  0.63731084    -0.97800
O917        O  0.17927270  0.41421578  0.56029579    -0.55000
O918        O  0.22276531  0.43123349  0.57249402    -0.74300
C919        C  0.23138454  0.44464732  0.54963252     0.98000
O920        O  0.19977937  0.52058950  0.56399583    -0.63200
O921        O  0.11613013  0.48614721  0.61728781    -0.58000
O922        O  0.17921790  0.48473813  0.52591743    -0.94600
O923        O  0.15037084  0.49337494  0.55871138    -0.93100
O924        O  0.14863591  0.51908948  0.65287434    -0.93400
O925        O  0.19575709  0.54073962  0.65415399    -0.92200
C926        C  0.16256852  0.49476929  0.52661393     1.16800
H927        H  0.15114973  0.48740207  0.70671330     0.32800
H928        H  0.21694868  0.50968286  0.64856946     0.43600
H929        H  0.17256786  0.45306770  0.56088626     0.37200
H930        H  0.21112322  0.42686328  0.69806264     0.33600
H931        H  0.16979599  0.54709331  0.72062056     0.25400
H932        H  0.27056422  0.47045413  0.70752072     0.31400
H933        H  0.21784067  0.39354055  0.61155145     0.37300
H934        H  0.14398210  0.53078013  0.66943938     0.31700
H935        H  0.10625060  0.47486925  0.62117358     0.30600
H936        H  0.12786624  0.44669016  0.56795011     0.32300
H937        H  0.18475272  0.40009933  0.56014113     0.31300
H938        H  0.18537932  0.54507127  0.63421850     0.35300
H939        H  0.18553756  0.52475781  0.56910534     0.28000
H940        H  0.18706136  0.42945171  0.79434186     0.32200
H941        H  0.17592568  0.39924395  0.66936514     0.35100
H942        H  0.11431806  0.49498804  0.64123914     0.27700
H943        H  0.20733901  0.52729369  0.58597509     0.40600
H944        H  0.22931957  0.48628461  0.75815953     0.30600
H945        H  0.19141360  0.54207193  0.73784582     0.38200
H946        H  0.18608269  0.42093662  0.53713738     0.30100
H947        H  0.27063323  0.45341968  0.67369502     0.30200
H948        H  0.17390402  0.41782340  0.76239332     0.30400
Zr949      Zr  0.31498434  0.54998822  0.22589674     2.17500
O950        O  0.32318208  0.57645371  0.27474054    -0.51900
O951        O  0.31223788  0.52149652  0.27530915    -0.75100
O952        O  0.27874793  0.55917467  0.25857899    -0.81900
O953        O  0.37042810  0.54307423  0.18567941    -0.83700
O954        O  0.25574994  0.56426546  0.21043154    -0.79300
O955        O  0.35120821  0.55407341  0.23974938    -0.90900
O956        O  0.33251452  0.49782844  0.24823805    -0.76900
O957        O  0.29774947  0.52146265  0.21036511    -0.86400
O958        O  0.33679242  0.52563945  0.18988530    -0.86100
O959        O  0.29110521  0.56608110  0.18401400    -0.72800
O960        O  0.32898269  0.56225891  0.16096156    -0.85000
Zr961      Zr  0.29518524  0.51930921  0.08340050     2.26400
Zr962      Zr  0.27013299  0.53610360  0.17947788     2.06300
Zr963      Zr  0.34792694  0.53617982  0.12343644     2.10000
Zr964      Zr  0.31846492  0.49626213  0.18223127     1.78800
O965        O  0.36149280  0.56597559  0.08829769    -0.93800
O966        O  0.30823239  0.46462750  0.21503429    -0.41600
O967        O  0.32580177  0.50749790  0.11628741    -0.78200
O968        O  0.28837895  0.50711027  0.15040118    -0.96900
O969        O  0.28039088  0.54736974  0.11638450    -0.90200
O970        O  0.31921243  0.54755324  0.08535797    -0.93000
C971        C  0.32085291  0.50375475  0.27592243     1.00700
C972        C  0.36834325  0.54887448  0.22353808     1.13600
C973        C  0.25979480  0.56363201  0.24692165     1.04400
O974        O  0.26542678  0.51310954  0.23592000    -0.95200
O975        O  0.25109659  0.52969493  0.12277693    -0.90900
O976        O  0.26309824  0.50160560  0.09953971    -0.84100
C977        C  0.25058686  0.51069216  0.12274945     1.11100
O978        O  0.32164511  0.60555793  0.13925693    -0.97200
Zr979      Zr  0.30283055  0.57529878  0.11823815     1.88900
O980        O  0.27049551  0.54126620  0.04856127    -0.73800
O981        O  0.23260210  0.53834846  0.18068438    -0.53100
O982        O  0.27949991  0.60327339  0.13311266    -0.97800
O983        O  0.31901185  0.59049066  0.05900918    -0.55000
O984        O  0.27465935  0.57403788  0.07107205    -0.74300
C985        C  0.26550303  0.56036356  0.05009203     0.98000
O986        O  0.29395936  0.48540567  0.05292299    -0.63200
O987        O  0.38212876  0.52276171  0.11286020    -0.58000
O988        O  0.31844267  0.52006617  0.02691180    -0.94600
O989        O  0.34792229  0.51250603  0.05804083    -0.93100
O990        O  0.35414864  0.48913399  0.16759904    -0.93400
O991        O  0.32012363  0.46366896  0.14752643    -0.92200
C992        C  0.33540282  0.51058869  0.02684097     1.16800
H993        H  0.34761012  0.52029614  0.20611001     0.32800
H994        H  0.28149535  0.49416682  0.15301881     0.43600
H995        H  0.32346274  0.55191342  0.05885258     0.37200
H996        H  0.28650911  0.57861197  0.19642215     0.33600
H997        H  0.32038107  0.45992913  0.23006555     0.25400
H998        H  0.22762244  0.53554860  0.20810003     0.31400
H999        H  0.27953764  0.61183247  0.10844013     0.37300
H1000       H  0.35740689  0.47698539  0.18427363     0.31700
H1001       H  0.39130582  0.53454026  0.11751592     0.30600
H1002       H  0.36221557  0.56173796  0.05968199     0.32300
H1003       H  0.31510989  0.60511884  0.05983860     0.31300
H1004       H  0.32840261  0.46622067  0.12306249     0.35300
H1005       H  0.30185423  0.47675429  0.07173825     0.28000
H1006       H  0.31304567  0.57467663  0.29658337     0.32200
H1007       H  0.31938850  0.60634532  0.16874351     0.35100
H1008       H  0.38460647  0.51348489  0.13597161     0.27700
H1009       H  0.27994364  0.47997077  0.05427857     0.40600
H1010       H  0.27056021  0.52035333  0.25996534     0.30600
H1011       H  0.29851166  0.46888904  0.23599587     0.38200
H1012       H  0.31136429  0.58497197  0.03573018     0.30100
H1013       H  0.22780984  0.55223303  0.17326352     0.30200
H1014       H  0.31920862  0.58937621  0.26123791     0.30400
Zr1015     Zr  0.20263875  0.56570671  0.97805014     2.17500
O1016       O  0.17844343  0.57414407  0.03110596    -0.51900
O1017       O  0.23176685  0.55985358  0.02370508    -0.75100
O1018       O  0.19320256  0.52959889  0.01049885    -0.81900
O1019       O  0.21011935  0.62171559  0.94172711    -0.83700
O1020       O  0.18637779  0.50675637  0.96264786    -0.79300
O1021       O  0.20040714  0.60178976  0.99577557    -0.90900
O1022       O  0.25585565  0.57966782  0.99635094    -0.76900
O1023       O  0.23000887  0.54776041  0.95837176    -0.86400
O1024       O  0.22699073  0.58758222  0.94180823    -0.86100
O1025       O  0.18452346  0.54297804  0.93656332    -0.72800
O1026       O  0.18927177  0.58114738  0.91555277    -0.85000
Zr1027     Zr  0.22844887  0.54732277  0.83173104     2.26400
Zr1028     Zr  0.21351180  0.52108530  0.92802507     2.06300
Zr1029     Zr  0.21508379  0.60015821  0.87759038     2.10000
Zr1030     Zr  0.25511841  0.56808768  0.92880807     1.78800
O1031       O  0.18533054  0.61483619  0.84481812    -0.93800
O1032       O  0.28858810  0.55872950  0.95506178    -0.41600
O1033       O  0.24265174  0.57717013  0.86479685    -0.78200
O1034       O  0.24186143  0.53945544  0.89728656    -0.96900
O1035       O  0.20094611  0.53253632  0.86644972    -0.90200
O1036       O  0.20157861  0.57250956  0.83811546    -0.93000
C1037       C  0.24979840  0.56752554  0.02328630     1.00700
C1038       C  0.20534849  0.61918852  0.98000078     1.13600
C1039       C  0.18812367  0.51073893  0.99910811     1.04400
O1040       O  0.23742467  0.51634585  0.98261953    -0.95200
O1041       O  0.21940944  0.50263032  0.87006065    -0.90900
O1042       O  0.24716914  0.51546311  0.84700525    -0.84100
C1043       C  0.23834942  0.50246357  0.86987095     1.11100
O1044       O  0.14686107  0.57979557  0.88940733    -0.97200
Zr1045     Zr  0.17419719  0.55616256  0.87225456     1.88900
O1046       O  0.20464748  0.52370207  0.79936188    -0.73800
O1047       O  0.21157538  0.48340474  0.93114285    -0.53100
O1048       O  0.14483863  0.53629329  0.89436095    -0.97800
O1049       O  0.15880243  0.57128800  0.81224028    -0.55000
O1050       O  0.17269161  0.52750874  0.82514944    -0.74300
C1051       C  0.18579174  0.51852756  0.80239580     0.98000
O1052       O  0.25439755  0.53884063  0.78249717    -0.63200
O1053       O  0.22794916  0.63477401  0.86756905    -0.58000
O1054       O  0.22891390  0.57360936  0.77988933    -0.94600
O1055       O  0.23874447  0.60167805  0.81324964    -0.93100
O1056       O  0.26429671  0.60338242  0.91337172    -0.93400
O1057       O  0.28369968  0.56084907  0.88512894    -0.92200
C1058       C  0.23958497  0.58989268  0.78097140     1.16800
H1059       H  0.23315820  0.59794737  0.95822126     0.32800
H1060       H  0.25489229  0.53289587  0.89969150     0.43600
H1061       H  0.19692986  0.57751627  0.81234443     0.37200
H1062       H  0.17240943  0.53830043  0.95023607     0.33600
H1063       H  0.29633883  0.57173654  0.95550995     0.25400
H1064       H  0.21499965  0.47898806  0.95872710     0.31400
H1065       H  0.13457979  0.53831362  0.87287938     0.37300
H1066       H  0.26861933  0.60925968  0.93948933     0.31700
H1067       H  0.21627244  0.64385266  0.87359887     0.30600
H1068       H  0.19068248  0.62075524  0.81942255     0.32300
H1069       H  0.14452836  0.56642883  0.81256886     0.31300
H1070       H  0.28545111  0.57346349  0.86890313     0.35300
H1071       H  0.26667102  0.53570785  0.79837102     0.28000
H1072       H  0.17877446  0.56230800  0.04976863     0.32200
H1073       H  0.14346853  0.57662751  0.91783957     0.35100
H1074       H  0.23761206  0.63703739  0.89000068     0.27700
H1075       H  0.25015075  0.52556185  0.77112046     0.40600
H1076       H  0.23015129  0.52016937  0.00748013     0.30600
H1077       H  0.28690922  0.55528087  0.98378129     0.38200
H1078       H  0.16503753  0.56397690  0.78921424     0.30100
H1079       H  0.19764057  0.47842355  0.92535536     0.30200
H1080       H  0.16498462  0.57325169  0.01782861     0.30400
C1081       C  0.24934829  0.82899022  0.42307820     0.79600
N1082       N  0.24789586  0.80830037  0.42879690    -0.78700
C1083       C  0.24226604  0.79575693  0.39796528     0.82100
N1084       N  0.23807089  0.80407725  0.36151817    -0.78600
C1085       C  0.23949980  0.82442462  0.35454944     0.82200
N1086       N  0.24537339  0.83700123  0.38541939    -0.80400
C1087       C  0.22426634  0.83363306  0.11377970     0.79600
N1088       N  0.22676921  0.81324586  0.10539100    -0.78700
C1089       C  0.23083171  0.79957293  0.13553969     0.82100
N1090       N  0.23199540  0.80637379  0.17412793    -0.78600
C1091       C  0.22956425  0.82638993  0.18348733     0.82200
N1092       N  0.22565363  0.84004477  0.15319792    -0.80400
C1093       C  0.22646592  0.67722666  0.10947302     0.79600
N1094       N  0.22793196  0.69781856  0.10210398    -0.78700
C1095       C  0.23426857  0.71091968  0.13150078     0.82100
N1096       N  0.23941192  0.70319801  0.16808933    -0.78600
C1097       C  0.23808038  0.68297552  0.17678866     0.82200
N1098       N  0.23131635  0.66986714  0.14734158    -0.80400
C1099       C  0.26392640  0.67572217  0.41626387     0.79600
N1100       N  0.25851429  0.69555516  0.42342578    -0.78700
C1101       C  0.25105841  0.70766106  0.39348483     0.82100
N1102       N  0.24892678  0.69976837  0.35595369    -0.78600
C1103       C  0.25415624  0.68020674  0.34731282     0.82200
N1104       N  0.26204239  0.66809675  0.37757262    -0.80400
C1105       C  0.07491541  0.52421033  0.16422444     0.79600
N1106       N  0.05452411  0.52225874  0.17194139    -0.78700
C1107       C  0.04123243  0.51711381  0.14208423     0.82100
N1108       N  0.04845391  0.51401125  0.10424279    -0.78600
C1109       C  0.06848248  0.51582916  0.09509000     0.82200
N1110       N  0.08185496  0.52109698  0.12528579    -0.80400
C1111       C  0.07278670  0.48170363  0.85930638     0.79600
N1112       N  0.08007872  0.48788000  0.89646536    -0.78700
C1113       C  0.06688966  0.49301335  0.92700923     0.82100
N1114       N  0.04663987  0.49155432  0.92011196    -0.78600
C1115       C  0.03903299  0.48531154  0.88417747     0.82200
N1116       N  0.05215317  0.48060928  0.85364369    -0.80400
C1117       C  0.91940270  0.52333665  0.16761315     0.79600
N1118       N  0.93988477  0.52162486  0.17468496    -0.78700
C1119       C  0.95307579  0.51787609  0.14368926     0.82100
N1120       N  0.94569249  0.51626887  0.10562802    -0.78600
C1121       C  0.92556023  0.51788018  0.09764261     0.82200
N1122       N  0.91236927  0.52133907  0.12876973    -0.80400
C1123       C  0.91689403  0.48879972  0.86228659     0.79600
N1124       N  0.91031176  0.49508972  0.89968100    -0.78700
C1125       C  0.92390742  0.49856927  0.93004623     0.82100
N1126       N  0.94394272  0.49539527  0.92298555    -0.78600
C1127       C  0.95089426  0.48885099  0.88669567     0.82200
N1128       N  0.93732677  0.48581480  0.85611626    -0.80400
C1129       C  0.42185797  0.52632295  0.35812741     0.79600
N1130       N  0.44242950  0.52408377  0.35363015    -0.78700
C1131       C  0.45431842  0.51833701  0.38533813     0.82100
N1132       N  0.44544596  0.51469558  0.42161122    -0.78600
C1133       C  0.42514519  0.51665510  0.42739488     0.82200
N1134       N  0.41320607  0.52277348  0.39550590    -0.80400
C1135       C  0.42000003  0.48298917  0.66247565     0.79600
N1136       N  0.44047298  0.48491938  0.66857240    -0.78700
C1137       C  0.45300427  0.49152421  0.63853207     0.82100
N1138       N  0.44483306  0.49647099  0.60223765    -0.78600
C1139       C  0.42465548  0.49467353  0.59466805     0.82200
N1140       N  0.41208240  0.48770522  0.62497054    -0.80400
C1141       C  0.57578711  0.52471473  0.36584163     0.79600
N1142       N  0.55530683  0.52276440  0.35982645    -0.78700
C1143       C  0.54277998  0.51675424  0.39043216     0.82100
N1144       N  0.55095283  0.51268180  0.42715886    -0.78600
C1145       C  0.57117876  0.51448548  0.43414618     0.82200
N1146       N  0.58366188  0.52078562  0.40346574    -0.80400
C1147       C  0.57435910  0.48736790  0.67053044     0.79600
N1148       N  0.55367633  0.48876068  0.67530294    -0.78700
C1149       C  0.54154432  0.49418691  0.64360432     0.82100
N1150       N  0.55028892  0.49821707  0.60741766    -0.78600
C1151       C  0.57060135  0.49696028  0.60166088     0.82200
N1152       N  0.58273372  0.49138018  0.63328015    -0.80400
C1153       C  0.76735662  0.33324179  0.90960703     0.79600
N1154       N  0.76331195  0.34010581  0.87112612    -0.78700
C1155       C  0.75754111  0.32664942  0.84165459     0.82100
N1156       N  0.75613505  0.30650306  0.85090017    -0.78600
C1157       C  0.76050318  0.29930449  0.88827509     0.82200
N1158       N  0.76607666  0.31273834  0.91760636    -0.80400
C1159       C  0.73700757  0.33245213  0.60156492     0.79600
N1160       N  0.73935899  0.34013734  0.63996259    -0.78700
C1161       C  0.74425291  0.32741993  0.67133443     0.82100
N1162       N  0.74642279  0.30719561  0.66413925    -0.78600
C1163       C  0.74418012  0.29918252  0.62677831     0.82200
N1164       N  0.73928896  0.31185287  0.59549282    -0.80400
C1165       C  0.76970865  0.17789000  0.91511506     0.79600
N1166       N  0.76744327  0.19842461  0.92120373    -0.78700
C1167       C  0.76123849  0.21094783  0.89080311     0.82100
N1168       N  0.75722420  0.20281798  0.85404638    -0.78600
C1169       C  0.75939484  0.18256800  0.84657512     0.82200
N1170       N  0.76583783  0.16995749  0.87728639    -0.80400
C1171       C  0.72994766  0.17793353  0.60931679     0.79600
N1172       N  0.73353894  0.19818641  0.60206910    -0.78700
C1173       C  0.74071571  0.21067888  0.63161299     0.82100
N1174       N  0.74450035  0.20269896  0.66873780    -0.78600
C1175       C  0.74108024  0.18268931  0.67726835     0.82200
N1176       N  0.73355487  0.17023801  0.64743898    -0.80400
C1177       C  0.41930990  0.99331210  0.35185933     0.79600
N1178       N  0.41176276  0.99566833  0.39032516    -0.78700
C1179       C  0.42435802  0.00125578  0.42127673     0.82100
N1180       N  0.44436084  0.00429275  0.41364136    -0.78600
C1181       C  0.45222508  0.00191311  0.37613121     0.82200
N1182       N  0.43966124  0.99635966  0.34531316    -0.80400
C1183       C  0.41561110  0.02399355  0.65927847     0.79600
N1184       N  0.40948863  0.02015838  0.62039324    -0.78700
C1185       C  0.42330121  0.01482439  0.59144412     0.82100
N1186       N  0.44319872  0.01336493  0.60152932    -0.78600
C1187       C  0.44979645  0.01730815  0.63948434     0.82200
N1188       N  0.43593883  0.02272358  0.66834748    -0.80400
C1189       C  0.57255434  0.99004609  0.36188829     0.79600
N1190       N  0.55261890  0.99408607  0.35338577    -0.78700
C1191       C  0.53997471  0.00230916  0.38159674     0.82100
N1192       N  0.54741042  0.00658658  0.41877713    -0.78600
C1193       C  0.56699315  0.00259370  0.42891222     0.82200
N1194       N  0.57967060  0.99406585  0.40033577    -0.80400
C1195       C  0.57078272  0.02871948  0.66907923     0.79600
N1196       N  0.57847833  0.02550420  0.63078567    -0.78700
C1197       C  0.56594790  0.01904672  0.60010151     0.82100
N1198       N  0.54588411  0.01636251  0.60796079    -0.78600
C1199       C  0.53786172  0.01981529  0.64510109     0.82200
N1200       N  0.55038136  0.02594802  0.67557990    -0.80400
C1201       C  0.07742972  0.98433323  0.16106760     0.79600
N1202       N  0.08354364  0.98922540  0.12247454    -0.78700
C1203       C  0.06964412  0.99525503  0.09414814     0.82100
N1204       N  0.04973530  0.99617763  0.10465456    -0.78600
C1205       C  0.04314469  0.99099820  0.14205588     0.82200
N1206       N  0.05706918  0.98508305  0.17035439    -0.80400
C1207       C  0.07342951  0.01654647  0.85375305     0.79600
N1208       N  0.05286059  0.01476383  0.84816196    -0.78700
C1209       C  0.04023192  0.01088208  0.87991965     0.82100
N1210       N  0.04824110  0.00912676  0.91734751    -0.78600
C1211       C  0.06845937  0.01082262  0.92418990     0.82200
N1212       N  0.08118273  0.01459112  0.89221923    -0.80400
C1213       C  0.92174945  0.97997197  0.16547507     0.79600
N1214       N  0.91426172  0.98496923  0.12784400    -0.78700
C1215       C  0.92706095  0.99208402  0.09818639     0.82100
N1216       N  0.94718321  0.99395907  0.10653587    -0.78600
C1217       C  0.95499017  0.98883323  0.14308484     0.82200
N1218       N  0.94219209  0.98188220  0.17247690    -0.80400
C1219       C  0.91916282  0.02328276  0.86165688     0.79600
N1220       N  0.93944861  0.02034176  0.85450600    -0.78700
C1221       C  0.95218067  0.01414223  0.88453839     0.82100
N1222       N  0.94447496  0.01080877  0.92196069    -0.78600
C1223       C  0.92447180  0.01347581  0.93033642     0.82200
N1224       N  0.91170332  0.01991180  0.90005875    -0.80400
Zr1225     Zr  0.79239680  0.94039287  0.97985086     2.17500
O1226       O  0.81776374  0.93289156  0.03118846    -0.51900
O1227       O  0.76381008  0.94584254  0.02762216    -0.75100
O1228       O  0.80147362  0.97672943  0.01142366    -0.81900
O1229       O  0.78426080  0.88400583  0.94394364    -0.83700
O1230       O  0.80813716  0.99942623  0.96304953    -0.79300
O1231       O  0.79479620  0.90414783  0.99686221    -0.90900
O1232       O  0.73971279  0.92584926  0.00150565    -0.76900
O1233       O  0.76480492  0.95828225  0.96160823    -0.86400
O1234       O  0.76788357  0.91875117  0.94412349    -0.86100
O1235       O  0.80971940  0.96330208  0.93725526    -0.72800
O1236       O  0.80519004  0.92484935  0.91683065    -0.85000
Zr1237     Zr  0.76424450  0.95814255  0.83481654     2.26400
Zr1238     Zr  0.78059771  0.98511768  0.92969321     2.06300
Zr1239     Zr  0.77919552  0.90568888  0.87978819     2.10000
Zr1240     Zr  0.73912605  0.93791059  0.93412511     1.78800
O1241       O  0.80924879  0.89100913  0.84795620    -0.93800
O1242       O  0.70861074  0.95530183  0.95769966    -0.41600
O1243       O  0.75143006  0.92840537  0.86996811    -0.78200
O1244       O  0.75192810  0.96664188  0.90051428    -0.96900
O1245       O  0.79211932  0.97322848  0.86793247    -0.90200
O1246       O  0.79171468  0.93343537  0.83999486    -0.93000
C1247       C  0.74581220  0.93802531  0.02812310     1.00700
C1248       C  0.78941130  0.88671853  0.98195289     1.13600
C1249       C  0.80648110  0.99558820  0.99960733     1.04400
O1250       O  0.75678143  0.99215394  0.98329307    -0.95200
O1251       O  0.77528605  0.00308439  0.87090104    -0.90900
O1252       O  0.74745841  0.99135288  0.84645167    -0.84100
C1253       C  0.75637953  0.00381782  0.86998332     1.11100
O1254       O  0.84840904  0.92914612  0.89208788    -0.97200
Zr1255     Zr  0.81930132  0.95005258  0.87264087     1.88900
O1256       O  0.78680904  0.98176676  0.79894243    -0.73800
O1257       O  0.78335426  0.02276768  0.92977812    -0.53100
O1258       O  0.84855165  0.97098398  0.89092784    -0.97800
O1259       O  0.83410580  0.93397742  0.81296741    -0.55000
O1260       O  0.81897587  0.97817769  0.82422920    -0.74300
C1261       C  0.80572180  0.98692109  0.80148349     0.98000
O1262       O  0.73014955  0.95946518  0.80556776    -0.63200
O1263       O  0.76554370  0.87147449  0.86903070    -0.58000
O1264       O  0.76508322  0.93374977  0.78013737    -0.94600
O1265       O  0.75613577  0.90519555  0.81372677    -0.93100
O1266       O  0.72639547  0.90300796  0.94180803    -0.93400
O1267       O  0.71212758  0.93206551  0.88514538    -0.92200
C1268       C  0.75498768  0.91710241  0.78128104     1.16800
H1269       H  0.76204680  0.90835325  0.96093034     0.32800
H1270       H  0.73909248  0.97365515  0.90089825     0.43600
H1271       H  0.79619424  0.92849250  0.81408406     0.37200
H1272       H  0.82200575  0.96801616  0.95017152     0.33600
H1273       H  0.69729428  0.94615433  0.94986323     0.25400
H1274       H  0.79736075  0.02718256  0.92284573     0.31400
H1275       H  0.85499271  0.97472821  0.86493380     0.37300
H1276       H  0.71301419  0.90452893  0.95526051     0.31700
H1277       H  0.77685595  0.86206603  0.87578191     0.30600
H1278       H  0.80560058  0.88990315  0.81908680     0.32300
H1279       H  0.84862468  0.93803215  0.81334278     0.31300
H1280       H  0.71368230  0.91782762  0.87545824     0.35300
H1281       H  0.72276848  0.94814585  0.81892287     0.28000
H1282       H  0.81269781  0.93991347  0.05565725     0.32200
H1283       H  0.84471883  0.91503366  0.88409958     0.35100
H1284       H  0.75547024  0.86950281  0.89093229     0.27700
H1285       H  0.72301712  0.97187942  0.81489129     0.40600
H1286       H  0.76398144  0.98800538  0.00794139     0.30600
H1287       H  0.70882065  0.95387785  0.98726369     0.38200
H1288       H  0.82836868  0.94158573  0.78976685     0.30100
H1289       H  0.78050514  0.02773992  0.95724284     0.30200
H1290       H  0.82984768  0.94091867  0.02285429     0.30400
Zr1291     Zr  0.68142271  0.95782609  0.23155357     2.17500
O1292       O  0.67304075  0.93159919  0.28105759    -0.51900
O1293       O  0.68497106  0.98627974  0.28015515    -0.75100
O1294       O  0.71777295  0.94859588  0.26381161    -0.81900
O1295       O  0.62572994  0.96681828  0.19396445    -0.83700
O1296       O  0.74054477  0.94196653  0.21575756    -0.79300
O1297       O  0.64517276  0.95585785  0.24763992    -0.90900
O1298       O  0.66578636  0.01048884  0.25165035    -0.76900
O1299       O  0.69964081  0.98567811  0.21493906    -0.86400
O1300       O  0.66020781  0.98263372  0.19491592    -0.86100
O1301       O  0.70475419  0.94061153  0.18995265    -0.72800
O1302       O  0.66675355  0.94538239  0.16751493    -0.85000
Zr1303     Zr  0.70019499  0.98622555  0.08675455     2.26400
Zr1304     Zr  0.72650453  0.96998000  0.18348155     2.06300
Zr1305     Zr  0.64785007  0.97156245  0.12987593     2.10000
Zr1306     Zr  0.67975813  0.01108478  0.18539198     1.78800
O1307       O  0.63349802  0.94136321  0.09777134    -0.93800
O1308       O  0.68290729  0.04501133  0.21563886    -0.41600
O1309       O  0.67041991  0.99960923  0.12062859    -0.78200
O1310       O  0.70826488  0.99805518  0.15276755    -0.96900
O1311       O  0.71519491  0.95857854  0.12108911    -0.90200
O1312       O  0.67572390  0.95866321  0.09113243    -0.93000
C1313       C  0.67693131  0.00425869  0.27986474     1.00700
C1314       C  0.62807698  0.96181289  0.23228321     1.13600
C1315       C  0.73663570  0.94355174  0.25226625     1.04400
O1316       O  0.73186600  0.99433870  0.23746139    -0.95200
O1317       O  0.74418385  0.97576211  0.12453890    -0.90900
O1318       O  0.73317030  0.00341942  0.09721161    -0.84100
C1319       C  0.74525587  0.99472790  0.12194282     1.11100
O1320       O  0.67051723  0.90234544  0.14190783    -0.97200
Zr1321     Zr  0.69241173  0.93115268  0.12462097     1.88900
O1322       O  0.72463477  0.96432336  0.05156537    -0.73800
O1323       O  0.76396247  0.96850574  0.18385038    -0.53100
O1324       O  0.71370109  0.90238950  0.14492107    -0.97800
O1325       O  0.67868591  0.91513348  0.06407491    -0.55000
O1326       O  0.72114961  0.93208651  0.07757899    -0.74300
C1327       C  0.73001839  0.94539630  0.05486979     0.98000
O1328       O  0.69979231  0.02131512  0.06331326    -0.63200
O1329       O  0.61369949  0.98507189  0.11932807    -0.58000
O1330       O  0.67702326  0.98623194  0.03021750    -0.94600
O1331       O  0.64812892  0.99471331  0.06291688    -0.93100
O1332       O  0.64660109  0.02084900  0.15897680    -0.93400
O1333       O  0.69458546  0.04126325  0.15529706    -0.92200
C1334       C  0.66027238  0.99616411  0.03077844     1.16800
H1335       H  0.64965086  0.98898721  0.21040042     0.32800
H1336       H  0.71544832  0.01075629  0.15296033     0.43600
H1337       H  0.67108470  0.95423596  0.06496672     0.37200
H1338       H  0.70921554  0.92821369  0.20311001     0.33600
H1339       H  0.66888913  0.04893293  0.22344693     0.25400
H1340       H  0.76874586  0.97140638  0.21131519     0.31400
H1341       H  0.71762046  0.89564940  0.11935040     0.37300
H1342       H  0.64482169  0.03524445  0.16754092     0.31700
H1343       H  0.60439958  0.97383881  0.12728512     0.30600
H1344       H  0.62949036  0.94611250  0.07055037     0.32300
H1345       H  0.68485979  0.90130956  0.06371943     0.31300
H1346       H  0.68448844  0.04506093  0.13443192     0.35300
H1347       H  0.68587078  0.02614291  0.06956005     0.28000
H1348       H  0.67918877  0.93655339  0.30646916     0.32200
H1349       H  0.65651171  0.90725458  0.13662716     0.35100
H1350       H  0.61192862  0.99558963  0.14049662     0.27700
H1351       H  0.70818388  0.02860441  0.08330599     0.40600
H1352       H  0.72724382  0.98754437  0.26247025     0.30600
H1353       H  0.69020689  0.04339023  0.24138725     0.38200
H1354       H  0.68529143  0.92233932  0.04125278     0.30100
H1355       H  0.76860660  0.95447672  0.17729731     0.30200
H1356       H  0.68149876  0.91970560  0.27323103     0.30400
Zr1357     Zr  0.81025862  0.05019514  0.72875747     2.17500
O1358       O  0.81819518  0.07333044  0.78393416    -0.51900
O1359       O  0.80500981  0.02059762  0.77417063    -0.75100
O1360       O  0.77418273  0.06013621  0.76064121    -0.81900
O1361       O  0.86622846  0.04255157  0.69236161    -0.83700
O1362       O  0.75152453  0.06637796  0.71230516    -0.79300
O1363       O  0.84630091  0.05335545  0.74539116    -0.90900
O1364       O  0.82491042  0.99635232  0.74742187    -0.76900
O1365       O  0.79272795  0.02247554  0.70914719    -0.86400
O1366       O  0.83224338  0.02598247  0.69265473    -0.86100
O1367       O  0.78763641  0.06839624  0.68716773    -0.72800
O1368       O  0.82572735  0.06362266  0.66626224    -0.85000
Zr1369     Zr  0.79241560  0.02417471  0.58263737     2.26400
Zr1370     Zr  0.76612073  0.03907903  0.67860428     2.06300
Zr1371     Zr  0.84484445  0.03785097  0.62820503     2.10000
Zr1372     Zr  0.81336368  0.99742620  0.67985197     1.78800
O1373       O  0.86057196  0.06778378  0.59740536    -0.93800
O1374       O  0.80293331  0.96410869  0.70601579    -0.41600
O1375       O  0.82213920  0.01010638  0.61570874    -0.78200
O1376       O  0.78469138  0.01057902  0.64836598    -0.96900
O1377       O  0.77757368  0.05176540  0.61715196    -0.90200
O1378       O  0.81729607  0.05144015  0.58872695    -0.93000
C1379       C  0.81292213  0.00257343  0.77435485     1.00700
C1380       C  0.86357959  0.04771833  0.73035675     1.13600
C1381       C  0.75541469  0.06513577  0.74885677     1.04400
O1382       O  0.75972500  0.01579767  0.73400210    -0.95200
O1383       O  0.74801723  0.03301424  0.62041178    -0.90900
O1384       O  0.76086993  0.00505992  0.59833729    -0.84100
C1385       C  0.74790811  0.01398596  0.62096382     1.11100
O1386       O  0.82458721  0.10549168  0.64354134    -0.97200
Zr1387     Zr  0.80089340  0.07882044  0.62300598     1.88900
O1388       O  0.76926246  0.04808035  0.54940427    -0.73800
O1389       O  0.72865877  0.04210124  0.67836214    -0.53100
O1390       O  0.78086860  0.10857395  0.64273199    -0.97800
O1391       O  0.81592350  0.09506856  0.56374835    -0.55000
O1392       O  0.77248417  0.08012654  0.57573307    -0.74300
C1393       C  0.76390479  0.06695459  0.55257141     0.98000
O1394       O  0.78404861  0.99748893  0.53479661    -0.63200
O1395       O  0.87878505  0.02368879  0.61831042    -0.58000
O1396       O  0.81823542  0.02403212  0.53017379    -0.94600
O1397       O  0.84616456  0.01416815  0.56337882    -0.93100
O1398       O  0.84907942  0.98899945  0.66873014    -0.93400
O1399       O  0.81057719  0.96914058  0.63286685    -0.92200
C1400       C  0.83440193  0.01328688  0.53106893     1.16800
H1401       H  0.84240818  0.01987875  0.70955696     0.32800
H1402       H  0.77829120  0.99739528  0.65091996     0.43600
H1403       H  0.82220352  0.05624817  0.56294900     0.37200
H1404       H  0.78293869  0.08061271  0.70057781     0.33600
H1405       H  0.81557235  0.95583724  0.70604813     0.25400
H1406       H  0.72349914  0.03969437  0.70588914     0.31400
H1407       H  0.78028021  0.11718253  0.61815540     0.37300
H1408       H  0.85214593  0.97840406  0.68921812     0.31700
H1409       H  0.88821283  0.03516189  0.62384062     0.30600
H1410       H  0.86584900  0.06278824  0.57123745     0.32300
H1411       H  0.81193254  0.10964073  0.56584935     0.31300
H1412       H  0.82383108  0.96858308  0.61867023     0.35300
H1413       H  0.78178985  0.98512432  0.55130111     0.28000
H1414       H  0.81350890  0.06598915  0.80839403     0.32200
H1415       H  0.82014649  0.10939903  0.67101173     0.35100
H1416       H  0.88078698  0.01407813  0.64107276     0.27700
H1417       H  0.77050027  0.00110621  0.52404467     0.40600
H1418       H  0.76530049  0.02230505  0.75840380     0.30600
H1419       H  0.79982790  0.96582954  0.73483502     0.38200
H1420       H  0.80796149  0.08986928  0.54060810     0.30100
H1421       H  0.72439291  0.05609181  0.67044590     0.30200
H1422       H  0.80845073  0.08477791  0.78076710     0.30400
Zr1423     Zr  0.70120958  0.06931354  0.48034345     2.17500
O1424       O  0.67766667  0.07804361  0.53434662    -0.51900
O1425       O  0.73018731  0.06579668  0.52705412    -0.75100
O1426       O  0.69179288  0.03320621  0.51350037    -0.81900
O1427       O  0.70916376  0.12492451  0.44089602    -0.83700
O1428       O  0.68478230  0.01023093  0.46598206    -0.76100
O1429       O  0.69769920  0.10565316  0.49447839    -0.90900
O1430       O  0.75404204  0.08490148  0.49717817    -0.76900
O1431       O  0.72866116  0.05106502  0.46208611    -0.86400
O1432       O  0.72550393  0.09079087  0.44295626    -0.86100
O1433       O  0.68328216  0.04594262  0.44019714    -0.72800
O1434       O  0.68778476  0.08383432  0.41709941    -0.85000
Zr1435     Zr  0.72667930  0.04924276  0.33450626     2.26400
Zr1436     Zr  0.71235042  0.02398766  0.43229710     2.06300
Zr1437     Zr  0.71354332  0.10236036  0.37792710     2.10000
Zr1438     Zr  0.75349401  0.07103096  0.43089703     1.78800
O1439       O  0.68286706  0.11573773  0.34629535    -0.93800
O1440       O  0.78786263  0.07010324  0.45908609    -0.41600
O1441       O  0.74132364  0.07932205  0.36608974    -0.78200
O1442       O  0.74028713  0.04210101  0.40026481    -0.96900
O1443       O  0.69943072  0.03463984  0.37035160    -0.90200
O1444       O  0.69971777  0.07427635  0.33994811    -0.93000
C1445       C  0.74805720  0.07382152  0.52583756     1.00700
C1446       C  0.70378807  0.12271931  0.47893433     1.13600
C1447       C  0.68657082  0.01431278  0.50234021     1.04400
O1448       O  0.73636577  0.01865907  0.48690707    -0.95200
O1449       O  0.71825605  0.00531591  0.37448678    -0.90900
O1450       O  0.74583597  0.01775263  0.34984712    -0.84100
C1451       C  0.73718455  0.00492391  0.37330370     1.11100
O1452       O  0.64370120  0.07904624  0.39641358    -0.97200
Zr1453     Zr  0.67255792  0.05814882  0.37554855     1.88900
O1454       O  0.70273380  0.02534368  0.30352361    -0.73800
O1455       O  0.71023288  0.98631385  0.43366483    -0.53100
O1456       O  0.64407471  0.03696562  0.39749752    -0.97800
O1457       O  0.65688554  0.07378084  0.31635259    -0.55000
O1458       O  0.67081915  0.02922418  0.32923227    -0.74300
C1459       C  0.68391458  0.02013980  0.30668694     0.98000
O1460       O  0.75044919  0.03977816  0.28192612    -0.63200
O1461       O  0.72468403  0.13711055  0.36291896    -0.58000
O1462       O  0.72805395  0.07501822  0.28172872    -0.94600
O1463       O  0.73782736  0.10329747  0.31429059    -0.93100
O1464       O  0.76099877  0.10407122  0.40032811    -0.93400
O1465       O  0.78357788  0.05543870  0.40219602    -0.92200
C1466       C  0.73885096  0.09122878  0.28242683     1.16800
H1467       H  0.73177957  0.10152083  0.45821186     0.32800
H1468       H  0.75311749  0.03527116  0.40285128     0.43600
H1469       H  0.69513711  0.07881208  0.31378358     0.37200
H1470       H  0.67108180  0.04168942  0.45415002     0.33600
H1471       H  0.79115771  0.08450186  0.46570234     0.25400
H1472       H  0.71381528  0.98153107  0.46089220     0.31400
H1473       H  0.63516028  0.03590880  0.37354546     0.37300
H1474       H  0.77567465  0.10342896  0.39362623     0.31700
H1475       H  0.71280892  0.14587639  0.36920868     0.30600
H1476       H  0.68625445  0.11657414  0.31724174     0.32300
H1477       H  0.64228984  0.07013465  0.31830512     0.31300
H1478       H  0.78771736  0.06548804  0.38137318     0.35300
H1479       H  0.76308776  0.03584311  0.29579885     0.28000
H1480       H  0.68304848  0.07079490  0.55831274     0.32200
H1481       H  0.64814725  0.09334526  0.39187204     0.35100
H1482       H  0.73479922  0.14037061  0.38405197     0.27700
H1483       H  0.74501041  0.02683469  0.27108546     0.40600
H1484       H  0.72993316  0.02419276  0.51154057     0.30600
H1485       H  0.78707198  0.06304633  0.48537985     0.38200
H1486       H  0.66191695  0.06565584  0.29323039     0.30100
H1487       H  0.69612153  0.98168672  0.42845230     0.30200
H1488       H  0.66498987  0.07063795  0.52750763     0.30400
Zr1489     Zr  0.81042959  0.95821768  0.29862022     2.17500
O1490       O  0.81908508  0.93371526  0.24618443    -0.51900
O1491       O  0.80406909  0.98660180  0.25078892    -0.75100
O1492       O  0.77423904  0.94839162  0.26734731    -0.81900
O1493       O  0.86670819  0.96564301  0.33431664    -0.83700
O1494       O  0.75170525  0.94276404  0.31622020    -0.79300
O1495       O  0.84640170  0.95539426  0.28153186    -0.90900
O1496       O  0.82474945  0.01044680  0.27543354    -0.76900
O1497       O  0.79302969  0.98622960  0.31662824    -0.86400
O1498       O  0.83228374  0.98305283  0.33350411    -0.86100
O1499       O  0.78788254  0.94089909  0.34180204    -0.72800
O1500       O  0.82615920  0.94595203  0.36182543    -0.85000
Zr1501     Zr  0.79328108  0.98722420  0.44340359     2.26400
Zr1502     Zr  0.76644231  0.97040068  0.34881643     2.06300
Zr1503     Zr  0.84536515  0.97226348  0.39823341     2.10000
Zr1504     Zr  0.81342889  0.01217382  0.34319249     1.78800
O1505       O  0.86167158  0.94329459  0.43122970    -0.93800
O1506       O  0.79699286  0.04320444  0.31867554    -0.41600
O1507       O  0.82270457  0.00012079  0.40771648    -0.78200
O1508       O  0.78480366  0.99950965  0.37745499    -0.96900
O1509       O  0.77838324  0.95908973  0.41074140    -0.90200
O1510       O  0.81792450  0.95967807  0.43859838    -0.93000
C1511       C  0.81201731  0.00456857  0.24974283     1.00700
C1512       C  0.86390124  0.96025759  0.29646302     1.13600
C1513       C  0.75542674  0.94377089  0.27955589     1.04400
O1514       O  0.76066036  0.99404163  0.29392566    -0.95200
O1515       O  0.74857879  0.97568587  0.40755984    -0.90900
O1516       O  0.76028428  0.00386883  0.43104608    -0.84100
C1517       C  0.74781846  0.99468524  0.40797110     1.11100
O1518       O  0.82292003  0.90344756  0.38501461    -0.97200
Zr1519     Zr  0.80139824  0.93176696  0.40651059     1.88900
O1520       O  0.76967933  0.96457867  0.47949577    -0.73800
O1521       O  0.72894065  0.96768199  0.34822363    -0.53100
O1522       O  0.78004152  0.90221267  0.39214164    -0.97800
O1523       O  0.81827589  0.91698686  0.46526497    -0.55000
O1524       O  0.77349319  0.93210339  0.45512480    -0.74300
C1525       C  0.76462272  0.94551759  0.47740536     0.98000
O1526       O  0.79196182  0.02120014  0.47384097    -0.63200
O1527       O  0.87875648  0.98815069  0.40454314    -0.58000
O1528       O  0.81748694  0.98671951  0.49821654    -0.94600
O1529       O  0.84597412  0.99540568  0.46458726    -0.93100
O1530       O  0.84829383  0.02441613  0.33477583    -0.93400
O1531       O  0.82049163  0.03975832  0.39065775    -0.92200
C1532       C  0.83413970  0.99671177  0.49706350     1.16800
H1533       H  0.84276443  0.98852740  0.31649575     0.32800
H1534       H  0.77782194  0.01241113  0.37679743     0.43600
H1535       H  0.82292859  0.95531242  0.46455893     0.37200
H1536       H  0.78299818  0.92850402  0.32933848     0.33600
H1537       H  0.80650871  0.05437576  0.32571349     0.25400
H1538       H  0.72391895  0.97036222  0.32077119     0.31400
H1539       H  0.78097473  0.89360578  0.41667720     0.37300
H1540       H  0.84690594  0.03787364  0.32126961     0.31700
H1541       H  0.88861004  0.97699592  0.39932042     0.30600
H1542       H  0.86194758  0.94704682  0.46013359     0.32300
H1543       H  0.81456039  0.90230623  0.46473810     0.31300
H1544       H  0.83421123  0.03720774  0.40191629     0.35300
H1545       H  0.80078640  0.02966380  0.45634018     0.28000
H1546       H  0.81188204  0.93876643  0.22192191     0.32200
H1547       H  0.82069836  0.90247517  0.35555468     0.35100
H1548       H  0.87992201  0.99730428  0.38082226     0.27700
H1549       H  0.77823014  0.02715260  0.47073478     0.40600
H1550       H  0.76473854  0.98671500  0.26927875     0.30600
H1551       H  0.79810133  0.04266720  0.28907826     0.38200
H1552       H  0.81077462  0.92248222  0.48879496     0.30100
H1553       H  0.72430643  0.95378274  0.35597106     0.30200
H1554       H  0.81170544  0.92109147  0.25392270     0.30400
Zr1555     Zr  0.79272872  0.06998835  0.04738909     2.17500
O1556       O  0.81790637  0.07758083  0.99560839    -0.51900
O1557       O  0.76406818  0.06729111  0.99910215    -0.75100
O1558       O  0.80184543  0.03339759  0.01544571    -0.81900
O1559       O  0.78600361  0.12580812  0.08726009    -0.83700
O1560       O  0.80622282  0.00991567  0.06368036    -0.79300
O1561       O  0.79838488  0.10626222  0.03492195    -0.90900
O1562       O  0.74056466  0.08747929  0.02700855    -0.76900
O1563       O  0.76436278  0.05301894  0.06405063    -0.86400
O1564       O  0.76878887  0.09212022  0.08379419    -0.86100
O1565       O  0.80872288  0.04595799  0.08880124    -0.72800
O1566       O  0.80538217  0.08416388  0.11157413    -0.85000
Zr1567     Zr  0.76362427  0.05061292  0.19187337     2.26400
Zr1568     Zr  0.77870243  0.02522146  0.09467808     2.06300
Zr1569     Zr  0.77990540  0.10333686  0.15002547     2.10000
Zr1570     Zr  0.73963669  0.07370057  0.09347780     1.78800
O1571       O  0.81038048  0.11640893  0.18277022    -0.93800
O1572       O  0.70747265  0.06467680  0.06176202    -0.41600
O1573       O  0.75148866  0.08115330  0.15875189    -0.78200
O1574       O  0.75035988  0.04339486  0.12596560    -0.96900
O1575       O  0.79091506  0.03540037  0.15715487    -0.90200
O1576       O  0.79169147  0.07464727  0.18804657    -0.93000
C1577       C  0.74635749  0.07578337  0.99919519     1.00700
C1578       C  0.79218976  0.12343733  0.04972572     1.13600
C1579       C  0.80607638  0.01426873  0.02714241     1.04400
O1580       O  0.75442554  0.02121788  0.04034641    -0.95200
O1581       O  0.77441716  0.00720695  0.15368718    -0.90900
O1582       O  0.74660288  0.01777367  0.17978664    -0.84100
C1583       C  0.75564268  0.00572438  0.15562353     1.11100
O1584       O  0.84807695  0.07753974  0.13065556    -0.97200
Zr1585     Zr  0.81874493  0.05792841  0.15383454     1.88900
O1586       O  0.78567432  0.02578435  0.22630374    -0.73800
O1587       O  0.78280970  0.98836222  0.08110528    -0.53100
O1588       O  0.84720314  0.03563573  0.13694367    -0.97800
O1589       O  0.83466214  0.07392524  0.21227196    -0.55000
O1590       O  0.81787186  0.02941666  0.20096769    -0.74300
C1591       C  0.80455716  0.02045527  0.22326873     0.98000
O1592       O  0.72937654  0.05106998  0.22015730    -0.63200
O1593       O  0.76724494  0.13777362  0.16290103    -0.58000
O1594       O  0.76471991  0.07384103  0.24838059    -0.94600
O1595       O  0.75696042  0.10332985  0.21658957    -0.93100
O1596       O  0.73458393  0.10946679  0.11174254    -0.93400
O1597       O  0.70682074  0.07631752  0.12679909    -0.92200
C1598       C  0.75528446  0.09091561  0.24826522     1.16800
H1599       H  0.76345240  0.10288456  0.06725054     0.32800
H1600       H  0.73751862  0.03634807  0.12567143     0.43600
H1601       H  0.79626766  0.07899244  0.21430141     0.37200
H1602       H  0.82102530  0.04106218  0.07613221     0.33600
H1603       H  0.70258825  0.07740997  0.04871183     0.25400
H1604       H  0.77012857  0.98245661  0.07043602     0.31400
H1605       H  0.85667317  0.03693561  0.15999668     0.37300
H1606       H  0.72536076  0.11490965  0.09071690     0.31700
H1607       H  0.77890827  0.14691056  0.15705937     0.30600
H1608       H  0.80609392  0.11907711  0.21090695     0.32300
H1609       H  0.84907703  0.06954846  0.21102811     0.31300
H1610       H  0.70906847  0.08530852  0.15036193     0.35300
H1611       H  0.72206780  0.06144235  0.20394385     0.28000
H1612       H  0.81284966  0.07047015  0.97126610     0.32200
H1613       H  0.84439742  0.09202650  0.13546937     0.35100
H1614       H  0.75740492  0.14054968  0.14099332     0.27700
H1615       H  0.72266538  0.03799990  0.21347153     0.40600
H1616       H  0.76153718  0.02570722  0.01557098     0.30600
H1617       H  0.71112379  0.05569274  0.03909615     0.38200
H1618       H  0.82909320  0.06648978  0.23588017     0.30100
H1619       H  0.78559643  0.98098898  0.10661572     0.30200
H1620       H  0.83007083  0.06967211  0.00385113     0.30400
Zr1621     Zr  0.68181907  0.05174147  0.79819707     2.17500
O1622       O  0.67423407  0.07742546  0.74714624    -0.51900
O1623       O  0.68565114  0.02268819  0.75092323    -0.75100
O1624       O  0.71795623  0.06061236  0.76524808    -0.81900
O1625       O  0.62628619  0.04477152  0.83749929    -0.83700
O1626       O  0.74073654  0.06781737  0.81278394    -0.79300
O1627       O  0.64565543  0.05466166  0.78286069    -0.90900
O1628       O  0.66618982  0.99896058  0.78019411    -0.76900
O1629       O  0.69986871  0.02407142  0.81630559    -0.86400
O1630       O  0.66018851  0.02734158  0.83527343    -0.86100
O1631       O  0.70500913  0.06944471  0.83926460    -0.72800
O1632       O  0.66720543  0.06480265  0.86172603    -0.85000
Zr1633     Zr  0.70178085  0.02542292  0.94348863     2.26400
Zr1634     Zr  0.72681393  0.04018946  0.84658140     2.06300
Zr1635     Zr  0.64870593  0.03884040  0.90067053     2.10000
Zr1636     Zr  0.67978780  0.99900222  0.84665729     1.78800
O1637       O  0.63508212  0.06885253  0.93476678    -0.93800
O1638       O  0.68212998  0.96481330  0.81718842    -0.41600
O1639       O  0.67171359  0.01094525  0.91175176    -0.78200
O1640       O  0.70879317  0.01181771  0.87751957    -0.96900
O1641       O  0.71616396  0.05316612  0.90853858    -0.90200
O1642       O  0.67669876  0.05244177  0.93898872    -0.93000
C1643       C  0.67762646  0.00470738  0.75195867     1.00700
C1644       C  0.62841336  0.04995656  0.79921486     1.13600
C1645       C  0.73679029  0.06574528  0.77641972     1.04400
O1646       O  0.73196869  0.01619215  0.79167409    -0.95200
O1647       O  0.74576554  0.03346649  0.90368238    -0.90900
O1648       O  0.73278415  0.00573812  0.92726741    -0.84100
C1649       C  0.74590249  0.01441947  0.90446125     1.11100
O1650       O  0.67324758  0.10910560  0.87783049    -0.97200
Zr1651     Zr  0.69248061  0.08005628  0.90384686     1.88900
O1652       O  0.72611645  0.04958576  0.97321772    -0.73800
O1653       O  0.76428085  0.04184311  0.84487460    -0.53100
O1654       O  0.71430707  0.10906392  0.88754774    -0.97800
O1655       O  0.67385044  0.09515376  0.96019457    -0.55000
O1656       O  0.72029459  0.08223521  0.95228668    -0.74300
C1657       C  0.73033253  0.06882866  0.97249791     0.98000
O1658       O  0.71082856  0.00211594  0.99734889    -0.63200
O1659       O  0.61422554  0.02650960  0.91270613    -0.58000
O1660       O  0.67668337  0.02321585  0.99711625    -0.94600
O1661       O  0.64803828  0.01436813  0.96480569    -0.93100
O1662       O  0.64640317  0.99072360  0.87407266    -0.93400
O1663       O  0.69400164  0.96857098  0.87727256    -0.92200
C1664       C  0.66021473  0.01284158  0.99650852     1.16800
H1665       H  0.64936819  0.02134533  0.81987846     0.32800
H1666       H  0.71558176  0.99894425  0.87396374     0.43600
H1667       H  0.67222702  0.05672008  0.96538403     0.37200
H1668       H  0.70952294  0.08170442  0.82565096     0.33600
H1669       H  0.66808841  0.96130793  0.80885689     0.25400
H1670       H  0.76886459  0.03784189  0.81774354     0.31400
H1671       H  0.71192427  0.11900398  0.90955963     0.37300
H1672       H  0.64032906  0.98140078  0.85390013     0.31700
H1673       H  0.60531400  0.03838386  0.90699712     0.30600
H1674       H  0.63142238  0.06388355  0.96205367     0.32300
H1675       H  0.67617022  0.11007350  0.95772692     0.31300
H1676       H  0.68298367  0.96390787  0.89551861     0.35300
H1677       H  0.71507362  0.98934417  0.98408002     0.28000
H1678       H  0.67869351  0.07113333  0.72147509     0.32200
H1679       H  0.65878140  0.10523549  0.88135899     0.35100
H1680       H  0.61151534  0.01678584  0.89049400     0.27700
H1681       H  0.72351375  0.00784460  0.00843345     0.40600
H1682       H  0.72693496  0.02292716  0.76692851     0.30600
H1683       H  0.68982369  0.96601310  0.79175737     0.38200
H1684       H  0.68165516  0.09118858  0.98450054     0.30100
H1685       H  0.76914372  0.05600116  0.84940047     0.30200
H1686       H  0.68423905  0.08846891  0.75210763     0.30400
Zr1687     Zr  0.70152978  0.94065424  0.55038820     2.17500
O1688       O  0.67737854  0.93258630  0.49722372    -0.51900
O1689       O  0.73094904  0.94599820  0.50461281    -0.75100
O1690       O  0.69175762  0.97684872  0.51840425    -0.81900
O1691       O  0.70908050  0.88439746  0.58737093    -0.83700
O1692       O  0.68492217  0.99962654  0.56643985    -0.79300
O1693       O  0.69921447  0.90439623  0.53364055    -0.90900
O1694       O  0.75526213  0.92639534  0.53189408    -0.76900
O1695       O  0.72888183  0.95859252  0.56984125    -0.86400
O1696       O  0.72566975  0.91875208  0.58679286    -0.86100
O1697       O  0.68336245  0.96346546  0.59175796    -0.72800
O1698       O  0.68806888  0.92544212  0.61308122    -0.85000
Zr1699     Zr  0.72721448  0.95937959  0.69607587     2.26400
Zr1700     Zr  0.71229458  0.98539195  0.60000043     2.06300
Zr1701     Zr  0.71366923  0.90630770  0.65115914     2.10000
Zr1702     Zr  0.75389326  0.93809796  0.59937321     1.78800
O1703       O  0.68342679  0.89179260  0.68270275    -0.93800
O1704       O  0.78708762  0.94877903  0.57372092    -0.41600
O1705       O  0.74118119  0.92930439  0.66339587    -0.78200
O1706       O  0.74058882  0.96687081  0.63016585    -0.96900
O1707       O  0.69968229  0.97416965  0.66165269    -0.90200
O1708       O  0.70025373  0.93417614  0.69039273    -0.93000
C1709       C  0.74901406  0.93829838  0.50471363     1.00700
C1710       C  0.70423097  0.88695175  0.54917790     1.13600
C1711       C  0.68661528  0.99569113  0.52997356     1.04400
O1712       O  0.73552571  0.99110797  0.54450926    -0.95200
O1713       O  0.71887187  0.00403593  0.65740409    -0.90900
O1714       O  0.74656655  0.99078954  0.67946181    -0.84100
C1715       C  0.73780633  0.00392520  0.65681396     1.11100
O1716       O  0.64530797  0.92826562  0.63456540    -0.97200
Zr1717     Zr  0.67292387  0.95056042  0.65615203     1.88900
O1718       O  0.70349032  0.98332556  0.72838705    -0.73800
O1719       O  0.70974156  0.02306424  0.59961122    -0.53100
O1720       O  0.64357670  0.97090457  0.63588589    -0.97800
O1721       O  0.65727778  0.93464860  0.71514731    -0.55000
O1722       O  0.67146191  0.97933923  0.70323361    -0.74300
C1723       C  0.68460614  0.98849631  0.72559036     0.98000
O1724       O  0.75340533  0.96769987  0.74466784    -0.63200
O1725       O  0.72656085  0.87179566  0.66237728    -0.58000
O1726       O  0.72791138  0.93332731  0.74837568    -0.94600
O1727       O  0.73744737  0.90504696  0.71539081    -0.93100
O1728       O  0.76335590  0.90255472  0.61140083    -0.93400
O1729       O  0.78067328  0.94319860  0.64848279    -0.92200
C1730       C  0.73848825  0.91698592  0.74745617     1.16800
H1731       H  0.73187709  0.90844017  0.57026726     0.32800
H1732       H  0.75367441  0.97329721  0.62686258     0.43600
H1733       H  0.69564023  0.92930838  0.71633141     0.37200
H1734       H  0.67117186  0.96797901  0.57818448     0.33600
H1735       H  0.79588271  0.93658227  0.57707772     0.25400
H1736       H  0.71281488  0.02801152  0.57217869     0.31400
H1737       H  0.63379752  0.96946599  0.65846127     0.37300
H1738       H  0.77613286  0.90070635  0.59596675     0.31700
H1739       H  0.71520559  0.86258207  0.65497942     0.30600
H1740       H  0.68868857  0.88125489  0.70146993     0.32300
H1741       H  0.64287690  0.93909044  0.71424714     0.31300
H1742       H  0.78413553  0.92932665  0.65837092     0.35300
H1743       H  0.76573894  0.97030464  0.72845471     0.28000
H1744       H  0.68221855  0.94049928  0.47359159     0.32200
H1745       H  0.64678898  0.92740257  0.60489724     0.35100
H1746       H  0.73689673  0.86970779  0.64102166     0.27700
H1747       H  0.74950746  0.98117439  0.75570797     0.40600
H1748       H  0.72880978  0.98581222  0.52011180     0.30600
H1749       H  0.78590782  0.95023597  0.54425913     0.38200
H1750       H  0.66300847  0.94206248  0.73853257     0.30100
H1751       H  0.69570314  0.02754678  0.60606633     0.30200
H1752       H  0.66467393  0.93955345  0.50558047     0.30400
Zr1753     Zr  0.80895144  0.55241144  0.30190246     2.17500
O1754       O  0.81641714  0.57903040  0.25255092    -0.51900
O1755       O  0.80718953  0.52239297  0.25573649    -0.75100
O1756       O  0.84466403  0.55200555  0.28385232    -0.81900
O1757       O  0.75455080  0.57361426  0.31123661    -0.83700
O1758       O  0.86226404  0.53541603  0.33358551    -0.79300
O1759       O  0.77538532  0.56097658  0.26473514    -0.90900
O1760       O  0.82508503  0.50011114  0.29128370    -0.76900
O1761       O  0.82922024  0.52692045  0.33707885    -0.86400
O1762       O  0.78488979  0.52589572  0.31560469    -0.86100
O1763       O  0.82435072  0.56500721  0.36549627    -0.72800
O1764       O  0.78733134  0.57265104  0.34479213    -0.85000
Zr1765     Zr  0.79305817  0.52863137  0.44923326     2.26400
Zr1766     Zr  0.84350509  0.53800232  0.40057735     2.06300
Zr1767     Zr  0.76301996  0.54667253  0.35522769     2.10000
Zr1768     Zr  0.80600502  0.50156445  0.35136013     1.78800
O1769       O  0.73161271  0.56287880  0.37830332    -0.93800
O1770       O  0.83721018  0.48189832  0.36176731    -0.41600
O1771       O  0.79086500  0.52927294  0.38110951    -0.78200
O1772       O  0.81962255  0.51141280  0.41378604    -0.96900
O1773       O  0.81872355  0.55400427  0.44360165    -0.90200
O1774       O  0.77460421  0.55656906  0.41772964    -0.93000
C1775       C  0.81462246  0.50430885  0.26079406     1.00700
C1776       C  0.75761822  0.56854065  0.27522515     1.13600
C1777       C  0.86036727  0.54220551  0.29658937     1.04400
O1778       O  0.87818000  0.52605847  0.41129403    -0.95200
O1779       O  0.84591466  0.51561603  0.46672344    -0.90900
O1780       O  0.81858879  0.52593245  0.50191621    -0.84100
C1781       C  0.83427796  0.51442374  0.49912572     1.11100
O1782       O  0.81660473  0.61296353  0.38923628    -0.97200
Zr1783     Zr  0.80047524  0.58133030  0.41130788     1.88900
O1784       O  0.77009916  0.54948994  0.48951552    -0.73800
O1785       O  0.86127935  0.56862542  0.42283490    -0.53100
O1786       O  0.82415593  0.59486725  0.46094109    -0.97800
O1787       O  0.77795422  0.61032108  0.39919826    -0.55000
O1788       O  0.77727881  0.58249867  0.47129009    -0.74300
C1789       C  0.76700252  0.56896195  0.49153602     0.98000
O1790       O  0.78929517  0.49419992  0.47736314    -0.63200
O1791       O  0.73965799  0.52867275  0.31071851    -0.58000
O1792       O  0.77241097  0.50454151  0.41446500    -0.94600
O1793       O  0.74994457  0.52836340  0.40848279    -0.93100
O1794       O  0.78880252  0.47351215  0.31872315    -0.93400
O1795       O  0.79238742  0.47398336  0.39128714    -0.92200
C1796       C  0.75617986  0.51094333  0.39941083     1.16800
H1797       H  0.77753396  0.52006245  0.29327735     0.32800
H1798       H  0.82445630  0.49895583  0.42609248     0.43600
H1799       H  0.76140765  0.56165484  0.42529533     0.37200
H1800       H  0.83414579  0.57533145  0.35780036     0.33600
H1801       H  0.83665536  0.47072143  0.34167205     0.25400
H1802       H  0.86827118  0.56443374  0.44795262     0.31400
H1803       H  0.81806322  0.59133052  0.48737518     0.37300
H1804       H  0.79970076  0.46357550  0.31225783     0.31700
H1805       H  0.72632408  0.53540624  0.31477193     0.30600
H1806       H  0.73519988  0.57740334  0.38295636     0.32300
H1807       H  0.77705221  0.61746917  0.42544190     0.31300
H1808       H  0.80494767  0.46812451  0.40302669     0.35300
H1809       H  0.77590129  0.48769626  0.47301474     0.28000
H1810       H  0.82124913  0.57163865  0.22833353     0.32200
H1811       H  0.81819048  0.61137238  0.35971403     0.35100
H1812       H  0.74374543  0.53227800  0.28327839     0.27700
H1813       H  0.79924276  0.48564491  0.46294218     0.40600
H1814       H  0.87828952  0.51197431  0.40033328     0.30600
H1815       H  0.84850594  0.49081254  0.35264195     0.38200
H1816       H  0.76433340  0.60413496  0.39544787     0.30100
H1817       H  0.87237321  0.57045728  0.40290900     0.30200
H1818       H  0.82853914  0.58630412  0.26293981     0.30400
Zr1819     Zr  0.70070496  0.56476798  0.54941503     2.17500
O1820       O  0.67552209  0.57082435  0.49690110    -0.51900
O1821       O  0.73159951  0.56617029  0.50632428    -0.75100
O1822       O  0.69987356  0.60072018  0.53095626    -0.81900
O1823       O  0.68374685  0.50763889  0.56077803    -0.83700
O1824       O  0.71243147  0.61931102  0.58405300    -0.79300
O1825       O  0.69387936  0.52980755  0.51371272    -0.90900
O1826       O  0.75087999  0.58621818  0.54387653    -0.76900
O1827       O  0.72144191  0.58404353  0.59172772    -0.86400
O1828       O  0.72860092  0.54286561  0.56561228    -0.86100
O1829       O  0.68520140  0.57993625  0.61052021    -0.72800
O1830       O  0.68183344  0.54088908  0.58957075    -0.85000
Zr1831     Zr  0.72093454  0.54973013  0.69967742     2.26400
Zr1832     Zr  0.71001325  0.59982943  0.64994261     2.06300
Zr1833     Zr  0.70946170  0.51894717  0.60465176     2.10000
Zr1834     Zr  0.74956885  0.56664053  0.60364380     1.78800
O1835       O  0.69788724  0.48628076  0.63235266    -0.93800
O1836       O  0.76344551  0.60122686  0.61134534    -0.41600
O1837       O  0.72348742  0.54797158  0.63176600    -0.78200
O1838       O  0.73771783  0.57760241  0.66685802    -0.96900
O1839       O  0.69413213  0.57378978  0.69066742    -0.90200
O1840       O  0.69542904  0.52977680  0.66480504    -0.93000
C1841       C  0.74863790  0.57527196  0.51324891     1.00700
C1842       C  0.68768253  0.51135141  0.52442487     1.13600
C1843       C  0.70708411  0.61729691  0.54629054     1.04400
O1844       O  0.71717233  0.63610915  0.65896610    -0.95200
O1845       O  0.73221424  0.60488789  0.71528400    -0.90900
O1846       O  0.72307808  0.57702087  0.74991409    -0.84100
C1847       C  0.73392629  0.59321144  0.74752934     1.11100
O1848       O  0.63871674  0.56823407  0.62218236    -0.97200
Zr1849     Zr  0.66938190  0.55441977  0.65302162     1.88900
O1850       O  0.69702441  0.52779504  0.73763222    -0.73800
O1851       O  0.67811545  0.61389433  0.67477734    -0.53100
O1852       O  0.65194597  0.57750237  0.69902770    -0.97800
O1853       O  0.64326807  0.52905322  0.63790540    -0.55000
O1854       O  0.66503470  0.53272188  0.71275351    -0.74300
C1855       C  0.67770606  0.52390563  0.73660489     0.98000
O1856       O  0.74518909  0.53179770  0.74224119    -0.63200
O1857       O  0.72811610  0.49419445  0.56437734    -0.58000
O1858       O  0.75140870  0.53579063  0.66770093    -0.94600
O1859       O  0.72980816  0.51188455  0.65969238    -0.93100
O1860       O  0.77671305  0.54781160  0.57228256    -0.93400
O1861       O  0.77764500  0.56420835  0.65071911    -0.92200
C1862       C  0.74744998  0.51836074  0.65376023     1.16800
H1863       H  0.73534950  0.53613501  0.54347400     0.32800
H1864       H  0.74976611  0.58238147  0.68041115     0.43600
H1865       H  0.69118762  0.51639792  0.67353716     0.37200
H1866       H  0.67470319  0.58927432  0.60170895     0.33600
H1867       H  0.77497393  0.60241718  0.59219823     0.25400
H1868       H  0.68177543  0.62053594  0.70058010     0.31400
H1869       H  0.64430600  0.56842164  0.71757626     0.37300
H1870       H  0.78693840  0.55838264  0.56530620     0.31700
H1871       H  0.72371398  0.48064255  0.57455084     0.30600
H1872       H  0.68292096  0.48626866  0.62887455     0.32300
H1873       H  0.63299309  0.53058160  0.65957430     0.31300
H1874       H  0.78551615  0.57706828  0.64854672     0.35300
H1875       H  0.75129331  0.51954854  0.73003626     0.28000
H1876       H  0.68303055  0.57772003  0.47481288     0.32200
H1877       H  0.64066527  0.56597288  0.59291131     0.35100
H1878       H  0.72202744  0.49475705  0.53764370     0.27700
H1879       H  0.75633557  0.54168275  0.74628460     0.40600
H1880       H  0.73214121  0.63725723  0.65631894     0.30600
H1881       H  0.75300788  0.61096121  0.60157191     0.38200
H1882       H  0.64980295  0.51568046  0.64341253     0.30100
H1883       H  0.67507537  0.62539192  0.65625559     0.30200
H1884       H  0.66629958  0.58141059  0.50794876     0.30400
Zr1885     Zr  0.79470640  0.44534821  0.04464713     2.17500
O1886       O  0.82179789  0.43888202  0.99613621    -0.51900
O1887       O  0.76547089  0.44632230  0.99724749    -0.75100
O1888       O  0.79448207  0.40981769  0.02420304    -0.81900
O1889       O  0.81396983  0.50050146  0.05972052    -0.83700
O1890       O  0.77982760  0.39082243  0.07456847    -0.79300
O1891       O  0.80449559  0.47973272  0.01030259    -0.90900
O1892       O  0.74572664  0.42550432  0.03182107    -0.76900
O1893       O  0.77197358  0.42599212  0.08287067    -0.86400
O1894       O  0.76672653  0.46800976  0.05724665    -0.86100
O1895       O  0.80762899  0.42991381  0.10805470    -0.72800
O1896       O  0.81272873  0.46810795  0.08832877    -0.85000
Zr1897     Zr  0.76849274  0.46009930  0.19100760     2.26400
Zr1898     Zr  0.78106166  0.40955019  0.14193541     2.06300
Zr1899     Zr  0.78554345  0.49111916  0.09836502     2.10000
Zr1900     Zr  0.74420259  0.44428858  0.09224154     1.78800
O1901       O  0.80099262  0.52271831  0.12321328    -0.93800
O1902       O  0.72992895  0.41039221  0.10546542    -0.41600
O1903       O  0.76980798  0.46216166  0.12327101    -0.78200
O1904       O  0.75315284  0.43199730  0.15615862    -0.96900
O1905       O  0.79486379  0.43534369  0.18560712    -0.90200
O1906       O  0.79556391  0.47997687  0.16111781    -0.93000
C1907       C  0.74827640  0.43728289  0.00240576     1.00700
C1908       C  0.81101609  0.49765803  0.02282744     1.13600
C1909       C  0.78603606  0.39333002  0.03728057     1.04400
O1910       O  0.77020269  0.37406153  0.14905185    -0.95200
O1911       O  0.75868439  0.40574735  0.20773303    -0.90900
O1912       O  0.77029786  0.43287757  0.24069146    -0.84100
C1913       C  0.75822884  0.41763809  0.23971906     1.11100
O1914       O  0.85405133  0.44017156  0.13547702    -0.97200
Zr1915     Zr  0.82147696  0.45496969  0.15462760     1.88900
O1916       O  0.78870268  0.48376040  0.23265748    -0.73800
O1917       O  0.81181105  0.39318289  0.16686751    -0.53100
O1918       O  0.83470870  0.43199204  0.20609386    -0.97800
O1919       O  0.84829855  0.47994388  0.14213666    -0.55000
O1920       O  0.82175795  0.47741840  0.21503846    -0.74300
C1921       C  0.80807240  0.48709267  0.23563452     0.98000
O1922       O  0.73388158  0.46475411  0.21699915    -0.63200
O1923       O  0.76701581  0.51459282  0.05473345    -0.58000
O1924       O  0.74351465  0.47764756  0.15086351    -0.94600
O1925       O  0.76503614  0.50236260  0.14983404    -0.93100
O1926       O  0.71387442  0.45452170  0.05745779    -0.93400
O1927       O  0.71417385  0.45647412  0.12703507    -0.92200
C1928       C  0.74835566  0.49517644  0.13895778     1.16800
H1929       H  0.76051589  0.47537122  0.03522998     0.32800
H1930       H  0.74076152  0.42707217  0.16848475     0.43600
H1931       H  0.79973828  0.49341496  0.16950643     0.37200
H1932       H  0.81849650  0.42066765  0.10075982     0.33600
H1933       H  0.71694824  0.41010196  0.09035775     0.25400
H1934       H  0.80688436  0.38276016  0.18626842     0.31400
H1935       H  0.84314913  0.44082300  0.22361003     0.37300
H1936       H  0.70581819  0.44182554  0.05410333     0.31700
H1937       H  0.77021849  0.52841346  0.06507011     0.30600
H1938       H  0.80123606  0.53233761  0.10012723     0.32300
H1939       H  0.85527795  0.48158125  0.16837346     0.31300
H1940       H  0.70815436  0.44374631  0.13809002     0.35300
H1941       H  0.72876275  0.47885981  0.21314108     0.28000
H1942       H  0.81479369  0.43406598  0.97150664     0.32200
H1943       H  0.85335594  0.43896698  0.10575524     0.35100
H1944       H  0.77416555  0.51399679  0.02897304     0.27700
H1945       H  0.72511145  0.45570032  0.20072898     0.40600
H1946       H  0.75618572  0.37374423  0.13815845     0.30600
H1947       H  0.73881735  0.40054727  0.09120159     0.38200
H1948       H  0.84097824  0.49303594  0.13808395     0.30100
H1949       H  0.81688876  0.38516841  0.14362879     0.30200
H1950       H  0.82921131  0.42678472  0.00650962     0.30400
Zr1951     Zr  0.68116276  0.46161944  0.80375859     2.17500
O1952       O  0.67524669  0.43394710  0.75599013    -0.51900
O1953       O  0.67840251  0.48863870  0.75286524    -0.75100
O1954       O  0.64489613  0.45624284  0.79357896    -0.81900
O1955       O  0.73832488  0.44774434  0.81845940    -0.83700
O1956       O  0.62834123  0.47555390  0.84047602    -0.79300
O1957       O  0.71569724  0.45202327  0.76924555    -0.90900
O1958       O  0.66005771  0.50922577  0.79097555    -0.76900
O1959       O  0.65980208  0.48569381  0.84075043    -0.86400
O1960       O  0.70081780  0.49197392  0.81488165    -0.86100
O1961       O  0.66722426  0.44829413  0.86761825    -0.72800
O1962       O  0.70678436  0.44727062  0.84494555    -0.85000
Zr1963     Zr  0.70076600  0.48732860  0.95043246     2.26400
Zr1964     Zr  0.64849499  0.47438701  0.90613452     2.06300
Zr1965     Zr  0.72748881  0.47703622  0.85342266     2.10000
Zr1966     Zr  0.67847090  0.51502288  0.85173895     1.78800
O1967       O  0.76347258  0.46981831  0.86576867    -0.93800
O1968       O  0.64352785  0.52409017  0.87000420    -0.41600
O1969       O  0.70466005  0.49883083  0.88497533    -0.78200
O1970       O  0.67170562  0.50249453  0.91720535    -0.96900
O1971       O  0.67635494  0.46034901  0.94473717    -0.90200
O1972       O  0.71782240  0.46103222  0.91226897    -0.93000
C1973       C  0.67057140  0.50625072  0.75972586     1.00700
C1974       C  0.73434580  0.44773089  0.78149875     1.13600
C1975       C  0.62956559  0.46710224  0.80476110     1.04400
O1976       O  0.61225350  0.47903104  0.91901017    -0.95200
O1977       O  0.64397992  0.49827448  0.96893493    -0.90900
O1978       O  0.67235873  0.48814264  0.99867428    -0.84100
C1979       C  0.65676896  0.49982059  0.99908715     1.11100
O1980       O  0.67642992  0.40333776  0.88614098    -0.97200
Zr1981     Zr  0.69394226  0.43421814  0.90829362     1.88900
O1982       O  0.72566203  0.46340227  0.98144346    -0.73800
O1983       O  0.63690676  0.44206280  0.93477005    -0.53100
O1984       O  0.67571322  0.42147840  0.96719009    -0.97800
O1985       O  0.71545046  0.40585192  0.88706079    -0.55000
O1986       O  0.71965827  0.43062562  0.96133288    -0.74300
C1987       C  0.72994228  0.44404453  0.98102432     0.98000
O1988       O  0.71347978  0.50719624  0.00665769    -0.63200
O1989       O  0.74735076  0.49781205  0.80634493    -0.58000
O1990       O  0.72389070  0.51478714  0.93348728    -0.94600
O1991       O  0.74025097  0.48805295  0.91598331    -0.93100
O1992       O  0.68955467  0.54489528  0.81427176    -0.93400
O1993       O  0.67250835  0.54876342  0.88105093    -0.92200
C1994       C  0.73872531  0.50698360  0.91502846     1.16800
H1995       H  0.70632879  0.49818900  0.79094409     0.32800
H1996       H  0.66718534  0.51452099  0.93134402     0.43600
H1997       H  0.73111384  0.45489773  0.91504853     0.37200
H1998       H  0.65779295  0.43746200  0.86110138     0.33600
H1999       H  0.63727423  0.52933134  0.84488128     0.25400
H2000       H  0.62976092  0.44589075  0.95995449     0.31400
H2001       H  0.68214589  0.40811931  0.97323148     0.37300
H2002       H  0.67693555  0.55104883  0.80329759     0.31700
H2003       H  0.75624603  0.48833153  0.79135160     0.30600
H2004       H  0.77001297  0.46695495  0.83950938     0.32300
H2005       H  0.71707817  0.39725038  0.91146034     0.31300
H2006       H  0.67308344  0.54704962  0.91067551     0.35300
H2007       H  0.72845007  0.50820261  0.00460226     0.28000
H2008       H  0.66655268  0.43990189  0.73462530     0.32200
H2009       H  0.66234944  0.40468900  0.89648837     0.35100
H2010       H  0.73783955  0.50346234  0.78656452     0.27700
H2011       H  0.70819670  0.52102087  0.00199351     0.40600
H2012       H  0.60969718  0.49379502  0.91461864     0.30600
H2013       H  0.63630552  0.51112936  0.87561038     0.38200
H2014       H  0.72902838  0.41207909  0.88279766     0.30100
H2015       H  0.62599018  0.43738616  0.91641661     0.30200
H2016       H  0.66637515  0.42408731  0.77038407     0.30400
Zr2017     Zr  0.79124958  0.56768232  0.97500867     2.17500
O2018       O  0.81814044  0.57565049  0.02291841    -0.51900
O2019       O  0.76217826  0.56451809  0.02284260    -0.75100
O2020       O  0.78967174  0.60334218  0.99490527    -0.81900
O2021       O  0.81402049  0.51422942  0.95935327    -0.83700
O2022       O  0.77383227  0.62167433  0.94490041    -0.79300
O2023       O  0.80335849  0.53420540  0.00916951    -0.90900
O2024       O  0.74004392  0.58338689  0.98926546    -0.76900
O2025       O  0.76549842  0.58820063  0.94129428    -0.86400
O2026       O  0.76453845  0.54337870  0.96243400    -0.86100
O2027       O  0.80272609  0.58405890  0.91136175    -0.72800
O2028       O  0.81070442  0.54642180  0.93035815    -0.85000
Zr2029     Zr  0.76572577  0.55234580  0.82902574     2.26400
Zr2030     Zr  0.77532553  0.60311220  0.87739072     2.06300
Zr2031     Zr  0.78490423  0.52179110  0.92129303     2.10000
Zr2032     Zr  0.73999415  0.56513775  0.92824535     1.78800
O2033       O  0.79925465  0.49041696  0.89295689    -0.93800
O2034       O  0.72270637  0.59795223  0.91911550    -0.41600
O2035       O  0.76720716  0.54993546  0.89707290    -0.78200
O2036       O  0.74891439  0.57894290  0.86524358    -0.96900
O2037       O  0.79065928  0.57843728  0.83339145    -0.90200
O2038       O  0.79411098  0.53414666  0.85904621    -0.93000
C2039       C  0.74423045  0.57216467  0.01876741     1.00700
C2040       C  0.81072168  0.51668554  0.99630893     1.13600
C2041       C  0.78026484  0.61935473  0.98204287     1.04400
O2042       O  0.76254157  0.63778435  0.86856528    -0.95200
O2043       O  0.75256994  0.60535011  0.81166860    -0.90900
O2044       O  0.76327604  0.57815446  0.77650035    -0.84100
C2045       C  0.75153387  0.59368278  0.77922718     1.11100
O2046       O  0.84950543  0.57827863  0.88418297    -0.97200
Zr2047     Zr  0.81845689  0.56060049  0.86422274     1.88900
O2048       O  0.78660776  0.52937978  0.78854099    -0.73800
O2049       O  0.80538782  0.62090519  0.85262859    -0.53100
O2050       O  0.82804152  0.58518890  0.81233066    -0.97800
O2051       O  0.84796600  0.53840047  0.87295277    -0.55000
O2052       O  0.81943271  0.53797712  0.80411182    -0.74300
C2053       C  0.80606478  0.52705512  0.78527017     0.98000
O2054       O  0.73163320  0.54813595  0.80124409    -0.63200
O2055       O  0.77276866  0.49548169  0.96795147    -0.58000
O2056       O  0.74123408  0.53259824  0.86556564    -0.94600
O2057       O  0.76487303  0.51006876  0.86985272    -0.93100
O2058       O  0.71073011  0.54963212  0.96051561    -0.93400
O2059       O  0.71138713  0.55286546  0.88967716    -0.92200
C2060       C  0.74778416  0.51634077  0.88053761     1.16800
H2061       H  0.75879399  0.53554723  0.98433824     0.32800
H2062       H  0.73641010  0.58370491  0.85332398     0.43600
H2063       H  0.79929768  0.52097207  0.85139604     0.37200
H2064       H  0.81299423  0.59394412  0.91874092     0.33600
H2065       H  0.71128293  0.59773536  0.93862189     0.25400
H2066       H  0.80205553  0.62442280  0.82434688     0.31400
H2067       H  0.83604320  0.57716660  0.79259241     0.37300
H2068       H  0.70189232  0.56126454  0.96823326     0.31700
H2069       H  0.77209743  0.48247635  0.95279154     0.30600
H2070       H  0.81419802  0.49239671  0.89318411     0.32300
H2071       H  0.85481610  0.53825674  0.84633732     0.31300
H2072       H  0.70591067  0.56564719  0.87783416     0.35300
H2073       H  0.72567843  0.53438846  0.80532034     0.28000
H2074       H  0.81114995  0.58180804  0.04641831     0.32200
H2075       H  0.85888051  0.57715190  0.86088216     0.35100
H2076       H  0.75883229  0.49854409  0.97707893     0.27700
H2077       H  0.72312012  0.55775806  0.81664922     0.40600
H2078       H  0.74782436  0.63675724  0.87472232     0.30600
H2079       H  0.73206313  0.60859837  0.92940104     0.38200
H2080       H  0.84216705  0.52448304  0.87583181     0.30100
H2081       H  0.80531991  0.63417588  0.86697981     0.30200
H2082       H  0.82588274  0.58702552  0.01044952     0.30400
Zr2083     Zr  0.68561026  0.55247979  0.23165199     2.17500
O2084       O  0.67976945  0.58133177  0.27664559    -0.51900
O2085       O  0.68565381  0.52538973  0.28340806    -0.75100
O2086       O  0.64984733  0.55332047  0.25060089    -0.81900
O2087       O  0.74277825  0.56473814  0.21106387    -0.83700
O2088       O  0.63020067  0.54126842  0.19868526    -0.79300
O2089       O  0.72052608  0.56314171  0.26205486    -0.90900
O2090       O  0.66456593  0.50610958  0.24907881    -0.76900
O2091       O  0.66288125  0.52944944  0.19602208    -0.86400
O2092       O  0.70477257  0.52182200  0.21924701    -0.86100
O2093       O  0.67017906  0.56606830  0.16911015    -0.72800
O2094       O  0.71057736  0.56567216  0.18718973    -0.85000
Zr2095     Zr  0.69921128  0.52416616  0.08429129     2.26400
Zr2096     Zr  0.64959066  0.54086655  0.13206897     2.06300
Zr2097     Zr  0.73052294  0.53556835  0.17679405     2.10000
Zr2098     Zr  0.68047296  0.49923785  0.18634751     1.78800
O2099       O  0.76612752  0.54233462  0.15975148    -0.93800
O2100       O  0.64461807  0.48989474  0.17844203    -0.41600
O2101       O  0.70604167  0.51443176  0.14963219    -0.78200
O2102       O  0.67039752  0.51176421  0.12265168    -0.96900
O2103       O  0.67691000  0.55291906  0.09105075    -0.90200
O2104       O  0.71871416  0.55067283  0.11842801    -0.93000
C2105       C  0.67690355  0.50809486  0.27768401     1.00700
C2106       C  0.73904334  0.56650425  0.24809849     1.13600
C2107       C  0.63282199  0.54673546  0.23635709     1.04400
O2108       O  0.61398120  0.53159352  0.12344472    -0.95200
O2109       O  0.64604155  0.51917244  0.06419215    -0.90900
O2110       O  0.67465231  0.52676789  0.03041331    -0.84100
C2111       C  0.65784193  0.51702827  0.03197270     1.11100
O2112       O  0.68485053  0.61005857  0.15719076    -0.97200
Zr2113     Zr  0.69633610  0.57853912  0.12509065     1.88900
O2114       O  0.72320946  0.54607228  0.04567839    -0.73800
O2115       O  0.63625348  0.57289423  0.10535065    -0.53100
O2116       O  0.67421091  0.59524329  0.07626906    -0.97800
O2117       O  0.72254016  0.60442732  0.13531705    -0.55000
O2118       O  0.71770747  0.57934760  0.06424102    -0.74300
C2119       C  0.72714405  0.56548958  0.04386030     0.98000
O2120       O  0.68881741  0.48955226  0.06725141    -0.63200
O2121       O  0.75129195  0.51261004  0.21768752    -0.58000
O2122       O  0.72550623  0.49811949  0.08346742    -0.94600
O2123       O  0.73793136  0.52470943  0.11063797    -0.93100
O2124       O  0.69197889  0.46880047  0.22186788    -0.93400
O2125       O  0.67809359  0.46524719  0.15680106    -0.92200
C2126       C  0.73802816  0.50582004  0.10748228     1.16800
H2127       H  0.71134570  0.51556092  0.24200094     0.32800
H2128       H  0.66290404  0.50060662  0.11088826     0.43600
H2129       H  0.73141754  0.55730169  0.11155091     0.37200
H2130       H  0.66137302  0.57728693  0.17648401     0.33600
H2131       H  0.64205477  0.47962181  0.19984453     0.25400
H2132       H  0.62871634  0.56887948  0.08077527     0.31400
H2133       H  0.68273649  0.60618429  0.06431203     0.37300
H2134       H  0.67950580  0.46258475  0.23346352     0.31700
H2135       H  0.76187695  0.52120433  0.23029528     0.30600
H2136       H  0.77334014  0.54567339  0.18506591     0.32300
H2137       H  0.72183502  0.61334932  0.11118777     0.31300
H2138       H  0.66690882  0.46581123  0.13686617     0.35300
H2139       H  0.69785737  0.48412429  0.04645102     0.28000
H2140       H  0.67452127  0.57516131  0.30188997     0.32200
H2141       H  0.67024408  0.61129428  0.15030419     0.35100
H2142       H  0.74261044  0.50782907  0.23983679     0.27700
H2143       H  0.69149198  0.48119963  0.09145783     0.40600
H2144       H  0.61367436  0.51657555  0.12742650     0.30600
H2145       H  0.63647086  0.50190258  0.18667531     0.38200
H2146       H  0.73558372  0.59697234  0.13241972     0.30100
H2147       H  0.62555695  0.57700128  0.12477355     0.30200
H2148       H  0.66802499  0.58877030  0.26501893     0.30400
Zr2149     Zr  0.70450951  0.43978083  0.47361749     2.17500
O2150       O  0.67778845  0.43355601  0.52322730    -0.51900
O2151       O  0.73226310  0.43739754  0.52295171    -0.75100
O2152       O  0.70008324  0.40300368  0.48208757    -0.81900
O2153       O  0.68850795  0.49679095  0.45931938    -0.83700
O2154       O  0.71972280  0.38775249  0.43426355    -0.79300
O2155       O  0.69407238  0.47426246  0.50840319    -0.90900
O2156       O  0.75344939  0.41987416  0.48439734    -0.76900
O2157       O  0.72836797  0.41949504  0.43402575    -0.86400
O2158       O  0.73413146  0.46028357  0.46174641    -0.86100
O2159       O  0.69069064  0.42623492  0.40981826    -0.72800
O2160       O  0.68921320  0.46553112  0.43409940    -0.85000
Zr2161     Zr  0.72842666  0.46157128  0.32727911     2.26400
Zr2162     Zr  0.71649011  0.40841033  0.36908197     2.06300
Zr2163     Zr  0.71812966  0.48706278  0.42493406     2.10000
Zr2164     Zr  0.75728964  0.43869823  0.42322454     1.78800
O2165       O  0.71036658  0.52358716  0.42265866    -0.93800
O2166       O  0.76785991  0.40382293  0.40651892    -0.41600
O2167       O  0.74026659  0.46504499  0.39202164    -0.78200
O2168       O  0.74397702  0.43195744  0.35820627    -0.96900
O2169       O  0.70183615  0.43665676  0.33245831    -0.90200
O2170       O  0.70205533  0.47792502  0.36591805    -0.93000
C2171       C  0.75008132  0.43020046  0.51577009     1.00700
C2172       C  0.68903208  0.49288317  0.49628661     1.13600
C2173       C  0.71188455  0.38843633  0.47059684     1.04400
O2174       O  0.72429088  0.37257244  0.35599129    -0.95200
O2175       O  0.73830722  0.40586853  0.30268727    -0.90900
O2176       O  0.73296045  0.43658221  0.27328434    -0.84100
C2177       C  0.74141167  0.41890464  0.27287184     1.11100
O2178       O  0.64557034  0.43785433  0.40076350    -0.97200
Zr2179     Zr  0.67584440  0.45336029  0.37096814     1.88900
O2180       O  0.70398745  0.48605168  0.29642011    -0.73800
O2181       O  0.68475235  0.39442359  0.34306846    -0.53100
O2182       O  0.65971910  0.43349631  0.31778407    -0.97800
O2183       O  0.64954865  0.47743365  0.39177326    -0.55000
O2184       O  0.67165107  0.47832324  0.31647329    -0.74300
C2185       C  0.68453902  0.48945749  0.29714902     0.98000
O2186       O  0.75129262  0.47552742  0.27673693    -0.63200
O2187       O  0.73862169  0.50707277  0.47196967    -0.58000
O2188       O  0.75414536  0.48472818  0.35176915    -0.94600
O2189       O  0.72788395  0.50295945  0.36451753    -0.93100
O2190       O  0.78632120  0.45109266  0.46100937    -0.93400
O2191       O  0.79020764  0.43456071  0.38970207    -0.92200
C2192       C  0.74661602  0.50071100  0.36677747     1.16800
H2193       H  0.74047172  0.46587158  0.48536355     0.32800
H2194       H  0.75557383  0.42726630  0.34309729     0.43600
H2195       H  0.69571080  0.49114656  0.36295216     0.37200
H2196       H  0.68014214  0.41649338  0.41641675     0.33600
H2197       H  0.77484763  0.39861053  0.43089773     0.25400
H2198       H  0.68882886  0.38610573  0.31947666     0.31400
H2199       H  0.64603012  0.43964808  0.31476218     0.37300
H2200       H  0.79385399  0.43861528  0.46912709     0.31700
H2201       H  0.72910091  0.51584071  0.48716048     0.30600
H2202       H  0.69942187  0.52505245  0.40235685     0.32300
H2203       H  0.63987317  0.47796223  0.36893038     0.31300
H2204       H  0.78764088  0.43469255  0.36033517     0.35300
H2205       H  0.75795172  0.48842562  0.28468497     0.28000
H2206       H  0.68486108  0.42808494  0.54725005     0.32200
H2207       H  0.64563226  0.42344855  0.39157122     0.35100
H2208       H  0.74458187  0.49762731  0.49161910     0.27700
H2209       H  0.76217666  0.46525352  0.27412632     0.40600
H2210       H  0.73933963  0.37181855  0.35579879     0.30600
H2211       H  0.75531373  0.39555484  0.40460186     0.38200
H2212       H  0.65636198  0.49095418  0.39141701     0.30100
H2213       H  0.68042664  0.38428627  0.36358944     0.30200
H2214       H  0.66967273  0.42197895  0.51270481     0.30400
Zr2215     Zr  0.80529278  0.46118023  0.72777267     2.17500
O2216       O  0.81278083  0.43476843  0.77754888    -0.51900
O2217       O  0.80434874  0.49143834  0.77177526    -0.75100
O2218       O  0.84080546  0.46351396  0.74805249    -0.81900
O2219       O  0.74900158  0.44249443  0.71690255    -0.83700
O2220       O  0.85997005  0.47582072  0.69542841    -0.79300
O2221       O  0.77088286  0.45323828  0.76373209    -0.90900
O2222       O  0.82450440  0.51093217  0.73485273    -0.76900
O2223       O  0.82689251  0.48497551  0.69075228    -0.86400
O2224       O  0.78252958  0.48856699  0.71025380    -0.86100
O2225       O  0.82168560  0.44717355  0.66651348    -0.72800
O2226       O  0.78277671  0.44144833  0.68654088    -0.85000
Zr2227     Zr  0.79110985  0.48209779  0.57716320     2.26400
Zr2228     Zr  0.84122536  0.47297074  0.62827738     2.06300
Zr2229     Zr  0.75964715  0.46815352  0.67171865     2.10000
Zr2230     Zr  0.80570048  0.51154379  0.67444751     1.78800
O2231       O  0.72838757  0.45412781  0.64324400    -0.93800
O2232       O  0.83914140  0.52819437  0.67169779    -0.41600
O2233       O  0.79172118  0.48044818  0.64798132    -0.78200
O2234       O  0.81765176  0.49982702  0.61163062    -0.96900
O2235       O  0.81614721  0.45622564  0.58649532    -0.90200
O2236       O  0.77181189  0.45558650  0.61113056    -0.93000
C2237       C  0.81297047  0.50871331  0.76462394     1.00700
C2238       C  0.75268089  0.44660377  0.75318942     1.13600
C2239       C  0.85740728  0.47113029  0.73357356     1.04400
O2240       O  0.87658348  0.48334251  0.61975328    -0.95200
O2241       O  0.84568341  0.49535279  0.56299175    -0.90900
O2242       O  0.81856568  0.48512166  0.52774692    -0.84100
C2243       C  0.83419405  0.49667089  0.53061389     1.11100
O2244       O  0.81227708  0.39962800  0.65272220    -0.97200
Zr2245     Zr  0.79747051  0.43033791  0.62311840     1.88900
O2246       O  0.77045894  0.45747500  0.53840759    -0.73800
O2247       O  0.85823678  0.44203686  0.60511461    -0.53100
O2248       O  0.82220212  0.41326198  0.57999427    -0.97800
O2249       O  0.77327608  0.40325541  0.63934435    -0.55000
O2250       O  0.77670885  0.42536031  0.56252260    -0.74300
C2251       C  0.76741007  0.43789056  0.53896569     0.98000
O2252       O  0.77227551  0.50676724  0.53655635    -0.63200
O2253       O  0.73485954  0.48648528  0.71239712    -0.58000
O2254       O  0.77668896  0.51178794  0.61142313    -0.94600
O2255       O  0.75346728  0.48929458  0.61761593    -0.93100
O2256       O  0.78566861  0.53754121  0.70679440    -0.93400
O2257       O  0.80427777  0.53953430  0.62626997    -0.92200
C2258       C  0.75963664  0.50686124  0.62555376     1.16800
H2259       H  0.77531860  0.49488347  0.73225183     0.32800
H2260       H  0.82234634  0.51193897  0.59791195     0.43600
H2261       H  0.75881696  0.45082090  0.60178172     0.37200
H2262       H  0.83129052  0.43692606  0.67541782     0.33600
H2263       H  0.83921478  0.53884273  0.69291853     0.25400
H2264       H  0.86485485  0.44608117  0.57946536     0.31400
H2265       H  0.81732822  0.41568539  0.55216149     0.37300
H2266       H  0.79562824  0.54831882  0.71390363     0.31700
H2267       H  0.72148538  0.48122487  0.70340211     0.30600
H2268       H  0.73003262  0.43908283  0.64474651     0.32300
H2269       H  0.77290225  0.39439801  0.61516533     0.31300
H2270       H  0.81408297  0.54997156  0.63570698     0.35300
H2271       H  0.75998867  0.51231472  0.54947573     0.28000
H2272       H  0.81881298  0.44213539  0.80069870     0.32200
H2273       H  0.81131012  0.40181198  0.68220353     0.35100
H2274       H  0.73615029  0.48103418  0.73964758     0.27700
H2275       H  0.78171036  0.51836484  0.53289600     0.40600
H2276       H  0.87731113  0.49717717  0.63179807     0.30600
H2277       H  0.84949987  0.51802204  0.67998142     0.38200
H2278       H  0.75985537  0.41015099  0.63965345     0.30100
H2279       H  0.86964251  0.44008015  0.62422115     0.30200
H2280       H  0.82417004  0.42681554  0.76584071     0.30400
C2281       C  0.72743609  0.83016445  0.41877928     0.79600
N2282       N  0.73079709  0.80981437  0.42566430    -0.78700
C2283       C  0.73781110  0.79735173  0.39577336     0.82100
N2284       N  0.74167184  0.80546086  0.35879329    -0.78600
C2285       C  0.73836383  0.82552943  0.35064075     0.82200
N2286       N  0.73101610  0.83792144  0.38071498    -0.80400
C2287       C  0.76369985  0.83078407  0.11219067     0.79600
N2288       N  0.76010900  0.81045378  0.10582759    -0.78700
C2289       C  0.75301597  0.79821541  0.13606039     0.82100
N2290       N  0.74939874  0.80647758  0.17289326    -0.78600
C2291       C  0.75296315  0.82651475  0.18054655     0.82200
N2292       N  0.76041650  0.83871688  0.15016081    -0.80400
C2293       C  0.72831164  0.67580897  0.41921189     0.79600
N2294       N  0.73190876  0.69609803  0.42635333    -0.78700
C2295       C  0.73780677  0.70879226  0.39578285     0.82100
N2296       N  0.74011132  0.70100133  0.35817205    -0.78600
C2297       C  0.73651356  0.68101066  0.35022757     0.82200
N2298       N  0.73036386  0.66836643  0.38076439    -0.80400
C2299       C  0.75910762  0.67657366  0.11272025     0.79600
N2300       N  0.75678927  0.69712189  0.10631416    -0.78700
C2301       C  0.75053774  0.70971036  0.13667967     0.82100
N2302       N  0.74681587  0.70164663  0.17365112    -0.78600
C2303       C  0.74924917  0.68144020  0.18112501     0.82200
N2304       N  0.75548705  0.66886635  0.15065148    -0.80400
C2305       C  0.72591810  0.67466801  0.23915091    -0.21900
C2306       C  0.74575091  0.67418622  0.22311263    -0.10000
C2307       C  0.76221956  0.67238474  0.24994201     0.28900
C2308       C  0.75890977  0.67231664  0.29187163    -0.21900
C2309       C  0.73915021  0.67398757  0.30792124    -0.10000
C2310       C  0.72260714  0.67453717  0.28107670     0.28900
F2311       F  0.70340904  0.67713268  0.29534601    -0.20500
H2312       H  0.71304171  0.67677087  0.21920398     0.17300
H2313       H  0.77192386  0.67261772  0.31188047     0.17300
F2314       F  0.78160252  0.67299612  0.23578294    -0.20500
C2315       C  0.73672537  0.76518169  0.15611559    -0.21900
C2316       C  0.75029037  0.77572890  0.13068221    -0.10000
C2317       C  0.76225956  0.76428349  0.10353095     0.28900
C2318       C  0.76152230  0.74276442  0.10389491    -0.21900
C2319       C  0.74884268  0.73227678  0.13118241    -0.10000
C2320       C  0.73587743  0.74381232  0.15629458     0.28900
F2321       F  0.72257863  0.73445883  0.18174015    -0.20500
H2322       H  0.72702234  0.77351460  0.17680051     0.17300
H2323       H  0.77165583  0.73430894  0.08425710     0.17300
F2324       F  0.77563666  0.77374508  0.07849393    -0.20500
C2325       C  0.72642368  0.83563428  0.28095300    -0.21900
C2326       C  0.74251982  0.83279407  0.30838301    -0.10000
C2327       C  0.76245086  0.83171395  0.29259440     0.28900
C2328       C  0.76601516  0.83228696  0.25063702    -0.21900
C2329       C  0.74982563  0.83365477  0.22308230    -0.10000
C2330       C  0.72997440  0.83588281  0.23886709     0.28900
F2331       F  0.71380566  0.83656750  0.21348022    -0.20500
H2332       H  0.71089081  0.83590742  0.29192016     0.17300
H2333       H  0.78134914  0.82987508  0.23958028     0.17300
F2334       F  0.77841507  0.82845728  0.31771525    -0.20500
C2335       C  0.75320153  0.76382894  0.37581882    -0.21900
C2336       C  0.74023013  0.77479750  0.40171803    -0.10000
C2337       C  0.72851457  0.76368808  0.42996152     0.28900
C2338       C  0.72862636  0.74212785  0.42976361    -0.21900
C2339       C  0.74051293  0.73126012  0.40171143    -0.10000
C2340       C  0.75348511  0.74242916  0.37591879     0.28900
F2341       F  0.76617443  0.73266374  0.34994275    -0.20500
H2342       H  0.76282162  0.77185234  0.35445752     0.17300
H2343       H  0.71857164  0.73396858  0.45009714     0.17300
F2344       F  0.71596905  0.77353903  0.45601344    -0.20500
C2345       C  0.76659284  0.64139897  0.08541671    -0.21900
C2346       C  0.76513995  0.66255084  0.07851114    -0.10000
C2347       C  0.76904068  0.66967391  0.03874287     0.28900
C2348       C  0.77373683  0.65587733  0.00715309    -0.21900
C2349       C  0.77515633  0.63471509  0.01443363    -0.10000
C2350       C  0.77155839  0.62777671  0.05434806     0.28900
F2351       F  0.77225248  0.60753430  0.06357030    -0.20500
H2352       H  0.76370009  0.63516430  0.11515227     0.17300
H2353       H  0.77654259  0.66179184  0.97713677     0.17300
F2354       F  0.76838288  0.68996674  0.03012208    -0.20500
C2355       C  0.72686025  0.64825964  0.52147076    -0.21900
C2356       C  0.71060680  0.63444291  0.51656439    -0.10000
C2357       C  0.69965706  0.63524984  0.47976776     0.28900
C2358       C  0.70547383  0.64864872  0.44856433    -0.21900
C2359       C  0.72203451  0.66199104  0.45314000    -0.10000
C2360       C  0.73247932  0.66189556  0.49029557     0.28900
F2361       F  0.74888896  0.67419420  0.49566470    -0.20500
H2362       H  0.73586807  0.64786411  0.54877723     0.17300
H2363       H  0.69694835  0.64860809  0.42063053     0.17300
F2364       F  0.68338018  0.62285860  0.47352357    -0.20500
C2365       C  0.70208304  0.87406624  0.47728902    -0.21900
C2366       C  0.70721140  0.87005360  0.51809534    -0.10000
C2367       C  0.71795531  0.85173262  0.52585981     0.28900
C2368       C  0.72402392  0.83869472  0.49380199    -0.21900
C2369       C  0.71989727  0.84357254  0.45295828    -0.10000
C2370       C  0.70837826  0.86129741  0.44548819     0.28900
F2371       F  0.70305626  0.86639850  0.40724940    -0.20500
H2372       H  0.69367068  0.88773720  0.46936227     0.17300
H2373       H  0.73261349  0.82502414  0.50096274     0.17300
F2374       F  0.72332248  0.84671706  0.56410530    -0.20500
C2375       C  0.77424563  0.85250913  0.00537952    -0.21900
C2376       C  0.78599058  0.87008357  0.01349827    -0.10000
C2377       C  0.79116569  0.87363692  0.05459292     0.28900
C2378       C  0.78386873  0.86098954  0.08583793    -0.21900
C2379       C  0.77161706  0.84391100  0.07788573    -0.10000
C2380       C  0.76732131  0.83952638  0.03687725     0.28900
F2381       F  0.75550653  0.82323818  0.02715174    -0.20500
H2382       H  0.76961684  0.84924885  0.97473929     0.17300
H2383       H  0.78787019  0.86467005  0.11665126     0.17300
F2384       F  0.80282457  0.88987791  0.06533981    -0.20500
C2385       C  0.91027432  0.02577236  0.78678515    -0.21900
C2386       C  0.90568048  0.03055660  0.82744708    -0.10000
C2387       C  0.88851087  0.04287352  0.83454450     0.28900
C2388       C  0.87618702  0.04965387  0.80246325    -0.21900
C2389       C  0.88006253  0.04413378  0.76180959    -0.10000
C2390       C  0.89761499  0.03220211  0.75452837     0.28900
F2391       F  0.90216726  0.02596959  0.71657330    -0.20500
H2392       H  0.92344877  0.01643922  0.77994533     0.17300
H2393       H  0.86297149  0.05878169  0.81001317     0.17300
F2394       F  0.88360051  0.04858934  0.87264501    -0.20500
C2395       C  0.91229416  0.98527586  0.02830442    -0.21900
C2396       C  0.91998145  0.99908006  0.05717127    -0.10000
C2397       C  0.92528790  0.01887784  0.04375520     0.28900
C2398       C  0.92424252  0.02424540  0.00265350    -0.21900
C2399       C  0.91795329  0.01009141  0.97331509    -0.10000
C2400       C  0.91140812  0.99065403  0.98684095     0.28900
F2401       F  0.90596830  0.97622320  0.95954000    -0.20500
H2402       H  0.90856146  0.96978211  0.03728396     0.17300
H2403       H  0.92994427  0.03907264  0.99330693     0.17300
F2404       F  0.93301399  0.03265466  0.07021601    -0.20500
C2405       C  0.91316960  0.97650168  0.24043609    -0.21900
C2406       C  0.90783825  0.97323077  0.19955317    -0.10000
C2407       C  0.88908015  0.96362792  0.19203245     0.28900
C2408       C  0.87601885  0.95808696  0.22393683    -0.21900
C2409       C  0.88066508  0.96235425  0.26488186    -0.10000
C2410       C  0.89978054  0.97140659  0.27255623     0.28900
F2411       F  0.90531390  0.97607689  0.31083180    -0.20500
H2412       H  0.92752357  0.98375997  0.24762395     0.17300
H2413       H  0.86164924  0.95108034  0.21596799     0.17300
F2414       F  0.88316908  0.95959362  0.15366663    -0.20500
C2415       C  0.98529673  0.99827119  0.90378785    -0.21900
C2416       C  0.97450356  0.01145798  0.87802347    -0.10000
C2417       C  0.98554809  0.02280989  0.84910348     0.28900
C2418       C  0.00698501  0.02182305  0.84799146    -0.21900
C2419       C  0.01770927  0.00946403  0.87551540    -0.10000
C2420       C  0.00650169  0.99715978  0.90248505     0.28900
F2421       F  0.01608155  0.98422597  0.92833944    -0.20500
H2422       H  0.97729614  0.98900262  0.92580766     0.17300
H2423       H  0.01521150  0.03149071  0.82700756     0.17300
F2424       F  0.97580132  0.03576097  0.82359982    -0.20500
C2425       C  0.06552374  0.01922266  0.03627496    -0.21900
C2426       C  0.07517769  0.00177271  0.05208955    -0.10000
C2427       C  0.08636752  0.98932691  0.02524436     0.28900
C2428       C  0.08628492  0.99346346  0.98319444    -0.21900
C2429       C  0.07514981  0.01010642  0.96736580    -0.10000
C2430       C  0.06548349  0.02334738  0.99481742     0.28900
F2431       F  0.05438116  0.03944006  0.98110323    -0.20500
H2432       H  0.05675819  0.02908562  0.05597364     0.17300
H2433       H  0.09347621  0.98272025  0.96284043     0.17300
F2434       F  0.09562367  0.97211858  0.03897658    -0.20500
C2435       C  0.98862900  0.97679953  0.17260513    -0.21900
C2436       C  0.97739043  0.99108764  0.14977131    -0.10000
C2437       C  0.98809189  0.00678959  0.12980772     0.28900
C2438       C  0.00936278  0.00720579  0.12993030    -0.21900
C2439       C  0.02075926  0.99214879  0.15016577    -0.10000
C2440       C  0.01015085  0.97730535  0.17288639     0.28900
F2441       F  0.02049002  0.96247202  0.19289949    -0.20500
H2442       H  0.98081573  0.96458697  0.18840784     0.17300
H2443       H  0.01701514  0.01907799  0.11282037     0.17300
F2444       F  0.97797608  0.02160682  0.10922462    -0.20500
C2445       C  0.60038259  0.04926464  0.69726045    -0.21900
C2446       C  0.58428231  0.03552365  0.70378984    -0.10000
C2447       C  0.58103139  0.02883437  0.74403694     0.28900
C2448       C  0.59435924  0.03461927  0.77577756    -0.21900
C2449       C  0.61106411  0.04774415  0.76886832    -0.10000
C2450       C  0.61321313  0.05560473  0.72900403     0.28900
F2451       F  0.62818058  0.06920169  0.72005051    -0.20500
H2452       H  0.60304449  0.05528202  0.66726183     0.17300
H2453       H  0.59210043  0.02803360  0.80542939     0.17300
F2454       F  0.56552408  0.01579621  0.75250516    -0.20500
C2455       C  0.56970345  0.02740042  0.48671669    -0.21900
C2456       C  0.57320618  0.00750725  0.47170065    -0.10000
C2457       C  0.57734025  0.99197959  0.50016578     0.28900
C2458       C  0.57701699  0.99615927  0.54217896    -0.21900
C2459       C  0.57281459  0.01596489  0.55707964    -0.10000
C2460       C  0.56953406  0.03158838  0.52849329     0.28900
F2461       F  0.56432099  0.05063348  0.54109610    -0.20500
H2462       H  0.56573854  0.03957994  0.46596179     0.17300
H2463       H  0.57866097  0.98356498  0.56319278     0.17300
F2464       F  0.57962781  0.97236398  0.48761831    -0.20500
C2465       C  0.58088313  0.98418298  0.28730396    -0.21900
C2466       C  0.58599419  0.98140653  0.32853592    -0.10000
C2467       C  0.60369832  0.97006851  0.33678034     0.28900
C2468       C  0.61601244  0.96245972  0.30525489    -0.21900
C2469       C  0.61163039  0.96611682  0.26387133    -0.10000
C2470       C  0.59348279  0.97689923  0.25556670     0.28900
F2471       F  0.58816635  0.98109581  0.21691968    -0.20500
H2472       H  0.56728505  0.99263834  0.27940401     0.17300
H2473       H  0.62965512  0.95424071  0.31377574     0.17300
F2474       F  0.60925144  0.96624315  0.37545692    -0.20500
C2475       C  0.48213752  0.02936783  0.67402412    -0.21900
C2476       C  0.47211928  0.01578715  0.64773463    -0.10000
C2477       C  0.48404651  0.00192108  0.62535049     0.28900
C2478       C  0.50527532  0.00276719  0.62666035    -0.21900
C2479       C  0.51542172  0.01722141  0.65061559    -0.10000
C2480       C  0.50362451  0.03007795  0.67559261     0.28900
F2481       F  0.51274924  0.04423917  0.69935053    -0.20500
H2482       H  0.47339107  0.04018576  0.69166056     0.17300
H2483       H  0.51386168  0.99236041  0.60776740     0.17300
F2484       F  0.47518846  0.98775720  0.60114586    -0.20500
C2485       C  0.42151021  0.98725444  0.49113354    -0.21900
C2486       C  0.41746529  0.00328612  0.46398080    -0.10000
C2487       C  0.41243058  0.02262279  0.47992741     0.28900
C2488       C  0.41226478  0.02594545  0.52198904    -0.21900
C2489       C  0.41748116  0.01014789  0.54893941    -0.10000
C2490       C  0.42160292  0.99061902  0.53301005     0.28900
F2491       F  0.42716561  0.97510464  0.55795028    -0.20500
H2492       H  0.42613255  0.97243218  0.47976463     0.17300
H2493       H  0.40967051  0.04126349  0.53330160     0.17300
F2494       F  0.40947183  0.03873830  0.45474800    -0.20500
C2495       C  0.48495679  0.01832734  0.39590918    -0.21900
C2496       C  0.47457191  0.00459717  0.37066154    -0.10000
C2497       C  0.48605662  0.99213356  0.34455168     0.28900
C2498       C  0.50746723  0.99236785  0.34618333    -0.21900
C2499       C  0.51777039  0.00500343  0.37382026    -0.10000
C2500       C  0.50621112  0.01866423  0.39739947     0.28900
F2501       F  0.51538929  0.03196589  0.42299715    -0.20500
H2502       H  0.47654021  0.02840751  0.41576595     0.17300
H2503       H  0.51591836  0.98174870  0.32754329     0.17300
F2504       F  0.47667746  0.97859280  0.31980675    -0.20500
C2505       C  0.70224841  0.13554327  0.55091724    -0.21900
C2506       C  0.70761026  0.13934874  0.51008354    -0.10000
C2507       C  0.71969233  0.15680051  0.50245579     0.28900
C2508       C  0.72648440  0.16937748  0.53454490    -0.21900
C2509       C  0.72198405  0.16472834  0.57535216    -0.10000
C2510       C  0.70946922  0.14771038  0.58282605     0.28900
F2511       F  0.70408420  0.14273632  0.62112871    -0.20500
H2512       H  0.69299298  0.12241657  0.55877983     0.17300
H2513       H  0.73595411  0.18246392  0.52744735     0.17300
F2514       F  0.72576842  0.16127277  0.46433398    -0.20500
C2515       C  0.76972319  0.17289401  0.77553726    -0.21900
C2516       C  0.75428204  0.17539202  0.80463700    -0.10000
C2517       C  0.73404403  0.17690590  0.79061962     0.28900
C2518       C  0.72955944  0.17693398  0.74894300    -0.21900
C2519       C  0.74509404  0.17564322  0.71979805    -0.10000
C2520       C  0.76524344  0.17311455  0.73376665     0.28900
F2521       F  0.78083447  0.17250977  0.70691311    -0.20500
H2522       H  0.78548514  0.17246100  0.78501113     0.17300
H2523       H  0.71402266  0.17960778  0.73941202     0.17300
F2524       F  0.71868535  0.18008561  0.81729323    -0.20500
C2525       C  0.77046314  0.16940686  0.99020938    -0.21900
C2526       C  0.77636945  0.16467028  0.95018935    -0.10000
C2527       C  0.78932522  0.14782590  0.94471943     0.28900
C2528       C  0.79581719  0.13601126  0.97782668    -0.21900
C2529       C  0.78916107  0.13993325  0.01784931    -0.10000
C2530       C  0.77647118  0.15713686  0.02345786     0.28900
F2531       F  0.76910308  0.16167040  0.06062047    -0.20500
H2532       H  0.76056786  0.18236194  0.99569782     0.17300
H2533       H  0.80556245  0.12304468  0.97149545     0.17300
F2534       F  0.79593761  0.14276504  0.90726290    -0.20500
C2535       C  0.72734808  0.35431811  0.49446279    -0.21900
C2536       C  0.71789899  0.37318899  0.50302297    -0.10000
C2537       C  0.71522964  0.37827441  0.54430224     0.28900
C2538       C  0.72167470  0.36517345  0.57528371    -0.21900
C2539       C  0.73083430  0.34626775  0.56702548    -0.10000
C2540       C  0.73352641  0.34092177  0.52588668     0.28900
F2541       F  0.74250046  0.32293440  0.51583796    -0.20500
H2542       H  0.72995086  0.34988772  0.46343971     0.17300
H2543       H  0.71925726  0.36991318  0.60619411     0.17300
F2544       F  0.70681222  0.39634327  0.55543738    -0.20500
C2545       C  0.73414279  0.26574535  0.59380935    -0.21900
C2546       C  0.74582514  0.27653872  0.62224374    -0.10000
C2547       C  0.75755801  0.26524148  0.65002344     0.28900
C2548       C  0.75639733  0.24393716  0.65134143    -0.21900
C2549       C  0.74370497  0.23309045  0.62489767    -0.10000
C2550       C  0.73310273  0.24419698  0.59496123     0.28900
F2551       F  0.72083300  0.23443217  0.56833563    -0.20500
H2552       H  0.72499428  0.27399675  0.57204707     0.17300
H2553       H  0.76516697  0.23592389  0.67405385     0.17300
F2554       F  0.76987076  0.27480651  0.67690144    -0.20500
C2555       C  0.76627043  0.34222518  0.77343435    -0.21900
C2556       C  0.75202931  0.33295662  0.79954431    -0.10000
C2557       C  0.73376875  0.32557817  0.78270326     0.28900
C2558       C  0.73044218  0.32621578  0.74094414    -0.21900
C2559       C  0.74520134  0.33405703  0.71441630    -0.10000
C2560       C  0.76299071  0.34263283  0.73120260     0.28900
F2561       F  0.77800502  0.34961411  0.70664032    -0.20500
H2562       H  0.78065935  0.34758133  0.78529543     0.17300
H2563       H  0.71688340  0.31902859  0.72894378     0.17300
F2564       F  0.71966730  0.31631029  0.80649308    -0.20500
C2565       C  0.77463158  0.35755114  0.01487474    -0.21900
C2566       C  0.78242321  0.37705493  0.00536849    -0.10000
C2567       C  0.78559158  0.38151509  0.96376889     0.28900
C2568       C  0.78072403  0.36731870  0.93352127    -0.21900
C2569       C  0.77279312  0.34798075  0.94293872    -0.10000
C2570       C  0.76999618  0.34318209  0.98431124     0.28900
F2571       F  0.76210590  0.32482685  0.99542303    -0.20500
H2572       H  0.77184359  0.35345839  0.04604500     0.17300
H2573       H  0.78322316  0.37158409  0.90232833     0.17300
F2574       F  0.79295011  0.39991401  0.95152182    -0.20500
C2575       C  0.74486916  0.26563255  0.87265445    -0.21900
C2576       C  0.75889794  0.27686654  0.89560804    -0.10000
C2577       C  0.77212402  0.26613658  0.92160234     0.28900
C2578       C  0.77224869  0.24454872  0.92183269    -0.21900
C2579       C  0.75911023  0.23344188  0.89642514    -0.10000
C2580       C  0.74484405  0.24430310  0.87316356     0.28900
F2581       F  0.73102298  0.23428558  0.85007899    -0.20500
H2582       H  0.73412663  0.27342671  0.85320117     0.17300
H2583       H  0.78329001  0.23656692  0.94028408     0.17300
F2584       F  0.78574911  0.27637977  0.94473154    -0.20500
C2585       C  0.58242317  0.48652224  0.74585637    -0.21900
C2586       C  0.58767661  0.48145283  0.70569834    -0.10000
C2587       C  0.60594852  0.47072165  0.69950099     0.28900
C2588       C  0.61862614  0.46562488  0.73199189    -0.21900
C2589       C  0.61391250  0.47118349  0.77217713    -0.10000
C2590       C  0.59542087  0.48169391  0.77863880     0.28900
F2591       F  0.58993736  0.48749949  0.81637028    -0.20500
H2592       H  0.56842767  0.49473358  0.75182416     0.17300
H2593       H  0.63260432  0.45760055  0.72508653     0.17300
F2594       F  0.61158521  0.46482668  0.66188280    -0.20500
C2595       C  0.57720331  0.52643722  0.50457793    -0.21900
C2596       C  0.57848778  0.51060453  0.47609369    -0.10000
C2597       C  0.58106508  0.49042164  0.49037097     0.28900
C2598       C  0.58119713  0.48618790  0.53212655    -0.21900
C2599       C  0.57843281  0.50191759  0.56051482    -0.10000
C2600       C  0.57701932  0.52218425  0.54619458     0.28900
F2601       F  0.57341692  0.53770706  0.57238397    -0.20500
H2602       H  0.57450010  0.54198609  0.49454276     0.17300
H2603       H  0.58155689  0.47040230  0.54212666     0.17300
F2604       F  0.58152206  0.47458626  0.46396961    -0.20500
C2605       C  0.60587334  0.54439533  0.33901913    -0.21900
C2606       C  0.58927292  0.53147977  0.33163445    -0.10000
C2607       C  0.58567358  0.52542282  0.29133322     0.28900
C2608       C  0.59913348  0.53115432  0.25993552    -0.21900
C2609       C  0.61624376  0.54355428  0.26756987    -0.10000
C2610       C  0.61887522  0.55069132  0.30769308     0.28900
F2611       F  0.63429609  0.56361371  0.31726949    -0.20500
H2612       H  0.60875933  0.54981989  0.36932048     0.17300
H2613       H  0.59651120  0.52528342  0.22988328     0.17300
F2614       F  0.56964154  0.51314556  0.28247835    -0.20500
C2615       C  0.48655166  0.50534479  0.61626817    -0.21900
C2616       C  0.47550721  0.49351144  0.64410146    -0.10000
C2617       C  0.48639795  0.48324736  0.67477752     0.28900
C2618       C  0.50786685  0.48414270  0.67595618    -0.21900
C2619       C  0.51883974  0.49523985  0.64664244    -0.10000
C2620       C  0.50772868  0.50628848  0.61742577     0.28900
F2621       F  0.51726543  0.51794276  0.58920686    -0.20500
H2622       H  0.47878890  0.51380465  0.59275795     0.17300
H2623       H  0.51590876  0.47549929  0.69881447     0.17300
F2624       F  0.47647356  0.47162767  0.70247463    -0.20500
C2625       C  0.41140026  0.49321735  0.48218282    -0.21900
C2626       C  0.41744882  0.51297856  0.46960953    -0.10000
C2627       C  0.42238833  0.52720713  0.49991362     0.28900
C2628       C  0.42235107  0.52158426  0.54097205    -0.21900
C2629       C  0.41750547  0.50155233  0.55357503    -0.10000
C2630       C  0.41138427  0.48754506  0.52356835     0.28900
F2631       F  0.40749071  0.46780466  0.53370772    -0.20500
H2632       H  0.40834943  0.48161318  0.45972146     0.17300
H2633       H  0.42773484  0.53257707  0.56292069     0.17300
F2634       F  0.42928645  0.54607711  0.48951818    -0.20500
C2635       C  0.48720405  0.50448052  0.41093616    -0.21900
C2636       C  0.47692045  0.51635663  0.38204931    -0.10000
C2637       C  0.48861460  0.52699027  0.35307749     0.28900
C2638       C  0.51006189  0.52653138  0.35476741    -0.21900
C2639       C  0.52022649  0.51542872  0.38517081    -0.10000
C2640       C  0.50841076  0.50392134  0.41251883     0.28900
F2641       F  0.51727026  0.49215260  0.44134613    -0.20500
H2642       H  0.47877052  0.49572841  0.43313630     0.17300
H2643       H  0.51868517  0.53547949  0.33318112     0.17300
F2644       F  0.47944639  0.53857390  0.32436959    -0.20500
C2645       C  0.90819019  0.48341048  0.78784962    -0.21900
C2646       C  0.90188187  0.48482469  0.82862804    -0.10000
C2647       C  0.88100598  0.48214547  0.83679998     0.28900
C2648       C  0.86720304  0.47782086  0.80573312    -0.21900
C2649       C  0.87337915  0.47607459  0.76499663    -0.10000
C2650       C  0.89415625  0.47935118  0.75639288     0.28900
F2651       F  0.90101371  0.47835354  0.71785187    -0.20500
H2652       H  0.92406870  0.48556302  0.78016077     0.17300
H2653       H  0.85135709  0.47591501  0.81397667     0.17300
F2654       F  0.87375448  0.48323117  0.87508155    -0.20500
C2655       C  0.90858679  0.49326548  0.99936385    -0.21900
C2656       C  0.91796003  0.50622840  0.97085908    -0.10000
C2657       C  0.92630913  0.52478952  0.98455877     0.28900
C2658       C  0.92691334  0.52939411  0.02588563    -0.21900
C2659       C  0.91893285  0.51579853  0.05474814    -0.10000
C2660       C  0.90896843  0.49804046  0.04095499     0.28900
F2661       F  0.90142756  0.48434468  0.06790739    -0.20500
H2662       H  0.90243398  0.47868217  0.98984625     0.17300
H2663       H  0.93485016  0.54305113  0.03560234     0.17300
F2664       F  0.93532321  0.53780284  0.95803698    -0.20500
C2665       C  0.88506712  0.53480249  0.19266118    -0.21900
C2666       C  0.90476392  0.52788558  0.20165042    -0.10000
C2667       C  0.90993432  0.52563111  0.24293747     0.28900
C2668       C  0.89573972  0.53025999  0.27381774    -0.21900
C2669       C  0.87611496  0.53752465  0.26456562    -0.10000
C2670       C  0.87105881  0.53957115  0.22310995     0.28900
F2671       F  0.85227761  0.54580588  0.21127346    -0.20500
H2672       H  0.88035790  0.53670600  0.16160200     0.17300
H2673       H  0.90015856  0.52819296  0.30499818     0.17300
F2674       F  0.92858655  0.51862714  0.25369676    -0.20500
C2675       C  0.00552939  0.47754607  0.91518705    -0.21900
C2676       C  0.01647960  0.48317698  0.88052695    -0.10000
C2677       C  0.00546107  0.48835966  0.84546043     0.28900
C2678       C  0.98394025  0.48918682  0.84641007    -0.21900
C2679       C  0.97319218  0.48488143  0.88227741    -0.10000
C2680       C  0.98433974  0.47833667  0.91618908     0.28900
F2681       F  0.97478051  0.47308021  0.95103266    -0.20500
H2682       H  0.01348717  0.47301408  0.94236886     0.17300
H2683       H  0.97578129  0.49420085  0.81982354     0.17300
F2684       F  0.01541560  0.49388031  0.81125862    -0.20500
C2685       C  0.08489553  0.49562068  0.03746822    -0.21900
C2686       C  0.07425548  0.51306398  0.05129808    -0.10000
C2687       C  0.06425534  0.52511562  0.02209783     0.28900
C2688       C  0.06385612  0.51935484  0.98126534    -0.21900
C2689       C  0.07328295  0.50130407  0.96758425    -0.10000
C2690       C  0.08443012  0.48976746  0.99612428     0.28900
F2691       F  0.09318908  0.47185041  0.98494992    -0.20500
H2692       H  0.09219493  0.48560987  0.05910954     0.17300
H2693       H  0.05487522  0.52843078  0.96049351     0.17300
F2694       F  0.05335490  0.54176049  0.03363628    -0.20500
C2695       C  0.98651870  0.52771066  0.17688535    -0.21900
C2696       C  0.97546545  0.51540710  0.14980717    -0.10000
C2697       C  0.98635751  0.50191505  0.12470816     0.28900
C2698       C  0.00761202  0.50195901  0.12425043    -0.21900
C2699       C  0.01880861  0.51523172  0.14905170    -0.10000
C2700       C  0.00803760  0.52761977  0.17663445     0.28900
F2701       F  0.01818810  0.54059471  0.20136171    -0.20500
H2702       H  0.97855167  0.53818832  0.19663753     0.17300
H2703       H  0.01537264  0.49187609  0.10338340     0.17300
F2704       F  0.97641593  0.48890712  0.09964629    -0.20500
C2705       C  0.26663890  0.68360299  0.27664174    -0.21900
C2706       C  0.25304114  0.67413103  0.30358807    -0.10000
C2707       C  0.23555339  0.66473284  0.28699626     0.28900
C2708       C  0.23154904  0.66563741  0.24490322    -0.21900
C2709       C  0.24460426  0.67638930  0.21851509    -0.10000
C2710       C  0.26252628  0.68483496  0.23508810     0.28900
F2711       F  0.27549813  0.69568630  0.21136552    -0.20500
H2712       H  0.27980797  0.69160592  0.28832778     0.17300
H2713       H  0.21739580  0.65943304  0.23354924     0.17300
F2714       F  0.22141935  0.65628629  0.31181157    -0.20500
C2715       C  0.22201286  0.76622188  0.10004493    -0.21900
C2716       C  0.23389084  0.77723085  0.12795641    -0.10000
C2717       C  0.24755043  0.76623763  0.15244298     0.28900
C2718       C  0.24830407  0.74490801  0.15112236    -0.21900
C2719       C  0.23542103  0.73364157  0.12564093    -0.10000
C2720       C  0.22270094  0.74458337  0.09888679     0.28900
F2721       F  0.21000193  0.73445496  0.07361325    -0.20500
H2722       H  0.21137181  0.77426397  0.08079430     0.17300
H2723       H  0.25863182  0.73712387  0.17144632     0.17300
F2724       F  0.25991563  0.77610980  0.17878477    -0.20500
C2725       C  0.24651042  0.84163277  0.24540349    -0.21900
C2726       C  0.22959302  0.83210363  0.22717843    -0.10000
C2727       C  0.21454054  0.82373267  0.25244849     0.28900
C2728       C  0.21696563  0.82358282  0.29443627    -0.21900
C2729       C  0.23453905  0.83159707  0.31276626    -0.10000
C2730       C  0.24896109  0.84146687  0.28787946     0.28900
F2731       F  0.26632921  0.84905617  0.30412297    -0.20500
H2732       H  0.25856738  0.84779881  0.22669060     0.17300
H2733       H  0.20571063  0.81568884  0.31262723     0.17300
F2734       F  0.19816244  0.81413351  0.23625384    -0.20500
C2735       C  0.25423619  0.76291283  0.43055381    -0.21900
C2736       C  0.24197592  0.77301545  0.40201908    -0.10000
C2737       C  0.23098157  0.76104676  0.37415964     0.28900
C2738       C  0.23331401  0.73981954  0.37321156    -0.21900
C2739       C  0.24653267  0.72977189  0.39996739    -0.10000
C2740       C  0.25653181  0.74149847  0.42961377     0.28900
F2741       F  0.26956060  0.73252328  0.45595939    -0.20500
H2742       H  0.26290612  0.77166039  0.45226626     0.17300
H2743       H  0.22511634  0.73125344  0.35049991     0.17300
F2744       F  0.21830643  0.76984578  0.34685023    -0.20500
C2745       C  0.22662835  0.66648646  0.03563356    -0.21900
C2746       C  0.21998768  0.66310864  0.07569134    -0.10000
C2747       C  0.20699173  0.64635782  0.08257686     0.28900
C2748       C  0.20106564  0.63341850  0.05067257    -0.21900
C2749       C  0.20828852  0.63619720  0.01068906    -0.10000
C2750       C  0.22122830  0.65310600  0.00379491     0.28900
F2751       F  0.22968742  0.65610059  0.96691956    -0.20500
H2752       H  0.23675972  0.67915061  0.02917297     0.17300
H2753       H  0.19125633  0.62059619  0.05784376     0.17300
F2754       F  0.19986467  0.64246496  0.12024753    -0.20500
C2755       C  0.39967736  0.53022442  0.25048609    -0.21900
C2756       C  0.38540592  0.54625557  0.25398636    -0.10000
C2757       C  0.38435431  0.55636512  0.29181480     0.28900
C2758       C  0.39582503  0.54964860  0.32528161    -0.21900
C2759       C  0.40937045  0.53311261  0.32221336    -0.10000
C2760       C  0.41167987  0.52394304  0.28381820     0.28900
F2761       F  0.42482909  0.50811739  0.27897816    -0.20500
H2762       H  0.40078305  0.52175452  0.22253695     0.17300
H2763       H  0.39416701  0.55753583  0.35378925     0.17300
F2764       F  0.37162103  0.57250925  0.29699602    -0.20500
C2765       C  0.12056450  0.46505775  0.80067487    -0.21900
C2766       C  0.11403482  0.46388172  0.75993721    -0.10000
C2767       C  0.09351503  0.46895764  0.75234542     0.28900
C2768       C  0.08022011  0.47448779  0.78446312    -0.21900
C2769       C  0.08703943  0.47579606  0.82502314    -0.10000
C2770       C  0.10758383  0.47103781  0.83225529     0.28900
F2771       F  0.11535591  0.47201201  0.87009228    -0.20500
H2772       H  0.13623589  0.46188563  0.80855935     0.17300
H2773       H  0.06455035  0.47811201  0.77735805     0.17300
F2774       F  0.08626093  0.46870493  0.71408160    -0.20500
C2775       C  0.39823997  0.47453377  0.76979901    -0.21900
C2776       C  0.38116023  0.46200112  0.76271579    -0.10000
C2777       C  0.37793319  0.45559300  0.72220773     0.28900
C2778       C  0.39015973  0.46277324  0.69021977    -0.21900
C2779       C  0.40675032  0.47577600  0.69711214    -0.10000
C2780       C  0.41104178  0.48101347  0.73774015     0.28900
F2781       F  0.42718749  0.49316870  0.74646776    -0.20500
H2782       H  0.40130317  0.47999751  0.79998756     0.17300
H2783       H  0.38674850  0.45785970  0.65980049     0.17300
F2784       F  0.36255661  0.44256691  0.71291808    -0.20500
C2785       C  0.09867972  0.53106359  0.27063428    -0.21900
C2786       C  0.11606714  0.54313657  0.26286532    -0.10000
C2787       C  0.11927007  0.54908807  0.22195210     0.28900
C2788       C  0.10623284  0.54266219  0.19065399    -0.21900
C2789       C  0.08910862  0.53042764  0.19829932    -0.10000
C2790       C  0.08536819  0.52493729  0.23909991     0.28900
F2791       F  0.06927824  0.51279663  0.24845523    -0.20500
H2792       H  0.09574110  0.52566988  0.30097696     0.17300
H2793       H  0.10953735  0.54749353  0.16008226     0.17300
F2794       F  0.13544362  0.56087347  0.21142206    -0.20500
C2795       C  0.27314380  0.65436500  0.52357170    -0.21900
C2796       C  0.28855554  0.63967483  0.51765326    -0.10000
C2797       C  0.29624223  0.63764615  0.47767656     0.28900
C2798       C  0.28808882  0.64898346  0.44516794    -0.21900
C2799       C  0.27231212  0.66316456  0.45099351    -0.10000
C2800       C  0.26528736  0.66601870  0.49105715     0.28900
F2801       F  0.25000018  0.67943468  0.49869166    -0.20500
H2802       H  0.26636516  0.65615646  0.55313439     0.17300
H2803       H  0.29425785  0.64668393  0.41521862     0.17300
F2804       F  0.31134425  0.62411051  0.46938058    -0.20500
C2805       C  0.27301318  0.87293762  0.48296661    -0.21900
C2806       C  0.26931396  0.86749581  0.52364825    -0.10000
C2807       C  0.25838963  0.84927668  0.53085991     0.28900
C2808       C  0.25199281  0.83682641  0.49829026    -0.21900
C2809       C  0.25579393  0.84245521  0.45768630    -0.10000
C2810       C  0.26634465  0.86082159  0.45071468     0.28900
F2811       F  0.27082549  0.86691530  0.41258428    -0.20500
H2812       H  0.28100305  0.88696124  0.47567919     0.17300
H2813       H  0.24384239  0.82280728  0.50487633     0.17300
F2814       F  0.25407602  0.84334682  0.56916229    -0.20500
C2815       C  0.11293632  0.97339749  0.18139232    -0.21900
C2816       C  0.09300832  0.97864409  0.19290143    -0.10000
C2817       C  0.08861535  0.97878477  0.23479101     0.28900
C2818       C  0.10375549  0.97395865  0.26368829    -0.21900
C2819       C  0.12371579  0.96864063  0.25199822    -0.10000
C2820       C  0.12795554  0.96847300  0.21000520     0.28900
F2821       F  0.14685315  0.96398991  0.19599283    -0.20500
H2822       H  0.11706639  0.97311512  0.14977728     0.17300
H2823       H  0.09982580  0.97452965  0.29538273     0.17300
F2824       F  0.06982090  0.98408760  0.24817909    -0.20500
C2825       C  0.39019120  0.03735557  0.76155012    -0.21900
C2826       C  0.36933493  0.03695102  0.75177053    -0.10000
C2827       C  0.36412688  0.03214319  0.71142694     0.28900
C2828       C  0.37913058  0.02816648  0.68225759    -0.21900
C2829       C  0.39999880  0.02879724  0.69162434    -0.10000
C2830       C  0.40532489  0.03355474  0.73198349     0.28900
F2831       F  0.42515439  0.03473064  0.74308832    -0.20500
H2832       H  0.39483815  0.04093368  0.79204112     0.17300
H2833       H  0.37421676  0.02439657  0.65202356     0.17300
F2834       F  0.34434988  0.03070647  0.69994113    -0.20500
C2835       C  0.08047738  0.01789978  0.77790245    -0.21900
C2836       C  0.08696082  0.02151110  0.81803706    -0.10000
C2837       C  0.10617869  0.03061140  0.82327744     0.28900
C2838       C  0.11823983  0.03601290  0.78989698    -0.21900
C2839       C  0.11191131  0.03247335  0.74972340    -0.10000
C2840       C  0.09280270  0.02309101  0.74423858     0.28900
F2841       F  0.08582622  0.01926980  0.70652165    -0.20500
H2842       H  0.06578729  0.01093070  0.77246777     0.17300
H2843       H  0.13292789  0.04285827  0.79587373     0.17300
F2844       F  0.11328631  0.03484006  0.86074558    -0.20500
C2845       C  0.21702695  0.85891722  0.00876003    -0.21900
C2846       C  0.21025159  0.87873480  0.01896345    -0.10000
C2847       C  0.20820189  0.88315578  0.06072499     0.28900
C2848       C  0.21282243  0.86856573  0.09044422    -0.21900
C2849       C  0.21953202  0.84881542  0.08047912    -0.10000
C2850       C  0.22148147  0.84413413  0.03889001     0.28900
F2851       F  0.22803539  0.82538635  0.02709107    -0.20500
H2852       H  0.21902373  0.85484265  0.97737618     0.17300
H2853       H  0.21101717  0.87289408  0.12174631     0.17300
F2854       F  0.20198681  0.90183339  0.07363874    -0.20500
C2855       C  0.41191808  0.98990153  0.27648847    -0.21900
C2856       C  0.40567572  0.98719910  0.31709058    -0.10000
C2857       C  0.38640318  0.97837175  0.32371920     0.28900
C2858       C  0.37400772  0.97254603  0.29118639    -0.21900
C2859       C  0.38006767  0.97531993  0.25053547    -0.10000
C2860       C  0.39929609  0.98422974  0.24370300     0.28900
F2861       F  0.40609240  0.98716661  0.20549764    -0.20500
H2862       H  0.42662978  0.99660600  0.26996075     0.17300
H2863       H  0.35927120  0.96601195  0.29818298     0.17300
F2864       F  0.37948728  0.97497197  0.36173549    -0.20500
C2865       C  0.27688876  0.14523651  0.51044453    -0.21900
C2866       C  0.28162109  0.12480567  0.52052968    -0.10000
C2867       C  0.28189332  0.11971317  0.56215838     0.28900
C2868       C  0.27770048  0.13436458  0.59197297    -0.21900
C2869       C  0.27317849  0.15480199  0.58216719    -0.10000
C2870       C  0.27288046  0.16005144  0.54063919     0.28900
F2871       F  0.26848930  0.17945283  0.52891712    -0.20500
H2872       H  0.27630052  0.14981867  0.47907687     0.17300
H2873       H  0.27817847  0.12955601  0.62321732     0.17300
F2874       F  0.28591524  0.10034655  0.57471070    -0.20500
C2875       C  0.24592797  0.16154823  0.74576155    -0.21900
C2876       C  0.26303329  0.17157588  0.72913682    -0.10000
C2877       C  0.27693983  0.18066189  0.75590963     0.28900
C2878       C  0.27298919  0.18137310  0.79739986    -0.21900
C2879       C  0.25504033  0.17311058  0.81393293    -0.10000
C2880       C  0.24195784  0.16224043  0.78786254     0.28900
F2881       F  0.22440905  0.15408774  0.80229969    -0.20500
H2882       H  0.23479244  0.15467056  0.72593108     0.17300
H2883       H  0.28336809  0.18985735  0.81645533     0.17300
F2884       F  0.29366420  0.19045630  0.74145153    -0.20500
C2885       C  0.22225226  0.14410326  0.95095171    -0.21900
C2886       C  0.23058413  0.16351850  0.95781865    -0.10000
C2887       C  0.23246500  0.17000447  0.99850265     0.28900
C2888       C  0.22644574  0.15720162  0.03091355    -0.21900
C2889       C  0.21789980  0.13780377  0.02383057    -0.10000
C2890       C  0.21593080  0.13154621  0.98301215     0.28900
F2891       F  0.20847714  0.11281442  0.97356712    -0.20500
H2892       H  0.22052503  0.13852615  0.92041528     0.17300
H2893       H  0.22842943  0.16251717  0.06155831     0.17300
F2894       F  0.24060532  0.18855474  0.00724038    -0.20500
C2895       C  0.28554264  0.36038755  0.58358400    -0.21900
C2896       C  0.27585777  0.34186659  0.57434467    -0.10000
C2897       C  0.27300479  0.33731098  0.53291238     0.28900
C2898       C  0.27892888  0.35134570  0.50221763    -0.21900
C2899       C  0.28838350  0.37014702  0.51162698    -0.10000
C2900       C  0.29193947  0.37406473  0.55328620     0.28900
F2901       F  0.30123417  0.39151653  0.56557977    -0.20500
H2902       H  0.28837524  0.36434897  0.61477279     0.17300
H2903       H  0.27558052  0.34769436  0.47109888     0.17300
F2904       F  0.26372673  0.31962972  0.52195510    -0.20500
C2905       C  0.26170477  0.23757162  0.59794420    -0.21900
C2906       C  0.26894911  0.22737531  0.63264366    -0.10000
C2907       C  0.27648273  0.23942677  0.66456724     0.28900
C2908       C  0.27544756  0.26072390  0.66318430    -0.21900
C2909       C  0.26727536  0.27102798  0.62981818    -0.10000
C2910       C  0.26095750  0.25926308  0.59638804     0.28900
F2911       F  0.25311591  0.26859271  0.56329414    -0.20500
H2912       H  0.25588532  0.22879832  0.57281253     0.17300
H2913       H  0.28094220  0.26927766  0.68892393     0.17300
F2914       F  0.28479282  0.23064020  0.69781487    -0.20500
C2915       C  0.22756263  0.32505868  0.77332715    -0.21900
C2916       C  0.24168461  0.33229783  0.80181028    -0.10000
C2917       C  0.26080588  0.33891327  0.78712021     0.28900
C2918       C  0.26575312  0.33756183  0.74550018    -0.21900
C2919       C  0.25193855  0.32914774  0.71753318    -0.10000
C2920       C  0.23259758  0.32334141  0.73210852     0.28900
F2921       F  0.21898858  0.31449730  0.70680361    -0.20500
H2922       H  0.21309765  0.31900906  0.78358251     0.17300
H2923       H  0.28098502  0.34153545  0.73572881     0.17300
F2924       F  0.27541581  0.34483262  0.81352389    -0.20500
C2925       C  0.20033527  0.37032836  0.97732483    -0.21900
C2926       C  0.20785757  0.36724159  0.01700689    -0.10000
C2927       C  0.22209149  0.35129089  0.02225247     0.28900
C2928       C  0.22886418  0.33952706  0.98897303    -0.21900
C2929       C  0.22210103  0.34346626  0.94917091    -0.10000
C2930       C  0.20742155  0.35889947  0.94409182     0.28900
F2931       F  0.19970471  0.36290790  0.90697844    -0.20500
H2932       H  0.18939348  0.38236012  0.97144216     0.17300
H2933       H  0.24002172  0.32762651  0.99425630     0.17300
F2934       F  0.23036305  0.34770349  0.05904590    -0.20500
C2935       C  0.23523530  0.26501356  0.92936947    -0.21900
C2936       C  0.24441769  0.27582833  0.89736265    -0.10000
C2937       C  0.25601014  0.26474488  0.86908037     0.28900
C2938       C  0.25696827  0.24346837  0.87090246    -0.21900
C2939       C  0.24652561  0.23241335  0.90089521    -0.10000
C2940       C  0.23631604  0.24349354  0.93130010     0.28900
F2941       F  0.22657261  0.23361654  0.96173181    -0.20500
H2942       H  0.22644736  0.27311040  0.95191332     0.17300
H2943       H  0.26553768  0.23559787  0.84771364     0.17300
F2944       F  0.26613513  0.27436084  0.83875884    -0.20500
loop_ 
_geom_bond_atom_site_label_1 
_geom_bond_atom_site_label_2 
_geom_bond_distance 
_geom_bond_site_symmetry_2 
_ccdc_geom_bond_type 
C1            N2   1.366       .  A
C1            N6   1.384       .  A
C1         C2929   1.516       .  S
N2            C3   1.361       .  A
C3            N4   1.355       .  A
C3         C2936   1.491       .  S
N4            C5   1.352       .  A
C5            N6   1.378       .  A
C5         C2916   1.506       .  S
C7            N8   1.371       .  A
C7           N12   1.381       .  A
C7         C2896   1.519       .  S
N8            C9   1.366       .  A
C9           N10   1.360       .  A
C9         C2909   1.497       .  S
N10          C11   1.356       .  A
C11          N12   1.373       .  A
C11        C2919   1.511       .  S
C13          N14   1.367       .  A
C13          N18   1.381       .  A
C13        C2886   1.511       .  S
N14          C15   1.361       .  A
C15          N16   1.354       .  A
C15        C2939   1.494       .  S
N16          C17   1.354       .  A
C17          N18   1.372       .  A
C17        C2879   1.503       .  S
C19          N20   1.375       .  A
C19          N24   1.379       .  A
C19        C2869   1.518       .  S
N20          C21   1.368       .  A
C21          N22   1.356       .  A
C21        C2906   1.502       .  S
N22          C23   1.352       .  A
C23          N24   1.368       .  A
C23        C2876   1.501       .  S
Zr25         O26   2.436       .  S
Zr25         O27   2.470       .  S
Zr25         O28   2.431       .  S
Zr25         O31   2.601       .  S
Zr25         O33   2.432       .  S
Zr25         O34   2.404       .  S
Zr25         O35   2.474       .  S
Zr25         O36   2.391       .  S
O26          H82   0.990       .  S
O26          H90   0.990       .  S
O27          C47   1.285   1_565  A
O28          C49   1.286       .  A
O29         Zr39   2.337       .  S
O29          C48   1.253       .  A
O30         Zr38   2.564       .  S
O30          C49   1.314       .  A
O31          C48   1.316       .  A
O32         Zr40   2.369       .  S
O32          C47   1.255       .  A
O33         Zr38   2.407       .  S
O33         Zr40   2.292   1_565  S
O34         Zr39   2.383       .  S
O34         Zr40   2.433   1_565  S
O34          H69   0.967       .  S
O35         Zr38   2.463       .  S
O35         Zr55   2.420       .  S
O35          H72   0.966       .  S
O36         Zr39   2.371       .  S
O36         Zr55   2.432       .  S
Zr37         O62   2.436   1_565  S
Zr37         O56   2.442       .  S
Zr37         O64   2.388   1_565  S
Zr37         O52   2.430       .  S
Zr37         O44   2.397   1_565  S
Zr37         O45   2.371       .  S
Zr37         O46   2.432       .  S
Zr37         O43   2.264       .  S
Zr38         O57   2.431       .  S
Zr38         O50   2.433       .  S
Zr38         O51   2.643       .  S
Zr38         O44   2.392   1_565  S
Zr38         O45   2.404       .  S
Zr39         O41   2.439       .  S
Zr39         O63   2.442       .  S
Zr39         O65   2.309       .  S
Zr39         O46   2.312       .  S
Zr39         O43   2.301       .  S
Zr40         O66   2.431       .  S
Zr40         O67   2.409       .  S
Zr40         O42   2.444       .  S
Zr40         O44   2.365       .  S
Zr40         O43   2.282   1_545  S
O41          H78   0.990       .  S
O42          H73   0.990       .  S
O42          H87   0.990       .  S
O44          H70   0.964       .  S
O45         Zr55   2.397       .  S
O46         Zr55   2.353       .  S
O46          H71   0.964       .  S
C47         C259   1.462       .  S
C48         C444   1.522       .  S
C49        C2859   1.517       .  S
O50          H86   0.990   1_565  S
O51          C53   1.321       .  A
O52          C53   1.279       .  A
C53         C317   1.563   1_564  S
O54         Zr55   2.434       .  S
O54          H83   0.990       .  S
Zr55         O58   2.434       .  S
Zr55         O59   2.437       .  S
Zr55         O60   2.489       .  S
O56          C61   1.291       .  A
O57          H74   0.990       .  S
O57          H89   0.990       .  S
O58          H75   0.990       .  S
O59          H79   0.990       .  S
O59          H88   0.990       .  S
O60          C61   1.295       .  A
C61         C113   1.460       .  S
O62          H81   0.988       .  S
O62          H85   0.986       .  S
O63          H77   0.989       .  S
O63          H84   0.975       .  S
O64          C68   1.251       .  A
O65          C68   1.242   1_565  A
O66          H76   0.990       .  S
O67          H80   0.986       .  S
C68         C398   1.422       .  S
Zr91         O92   2.438   1_556  S
Zr91         O93   2.468   1_556  S
Zr91         O94   2.438   1_556  S
Zr91         O97   2.596   1_556  S
Zr91         O99   2.434       .  S
Zr91        O100   2.406       .  S
Zr91        O101   2.473       .  S
Zr91        O102   2.398       .  S
O92         H148   0.990       .  S
O92         H156   0.990       .  S
O93         C113   1.286       .  A
O94         C115   1.289   1_554  A
O95        Zr105   2.353   1_545  S
O95         C114   1.258   1_556  A
O96        Zr104   2.547       .  S
O96         C115   1.310       .  A
O97         C114   1.318   1_565  A
O98        Zr106   2.358       .  S
O98         C113   1.254   1_556  A
O99        Zr104   2.408       .  S
O99        Zr106   2.300       .  S
O100       Zr105   2.380       .  S
O100       Zr106   2.437       .  S
O100        H135   0.963       .  S
O101       Zr104   2.463       .  S
O101       Zr121   2.424       .  S
O101        H138   0.966       .  S
O102       Zr105   2.368       .  S
O102       Zr121   2.426       .  S
Zr103       O128   2.430       .  S
Zr103       O122   2.466       .  S
Zr103       O130   2.438       .  S
Zr103       O118   2.441       .  S
Zr103       O109   2.357       .  S
Zr103       O110   2.393       .  S
Zr103       O111   2.377       .  S
Zr103       O112   2.421       .  S
Zr104       O123   2.436       .  S
Zr104       O116   2.436       .  S
Zr104       O117   2.608       .  S
Zr104       O110   2.413       .  S
Zr104       O111   2.425       .  S
Zr105       O107   2.440   1_565  S
Zr105       O129   2.434   1_565  S
Zr105       O131   2.307       .  S
Zr105       O109   2.382       .  S
Zr105       O112   2.315       .  S
Zr106       O132   2.404       .  S
Zr106       O133   2.427       .  S
Zr106       O108   2.450       .  S
Zr106       O109   2.395       .  S
Zr106       O110   2.354       .  S
O107        H144   0.990       .  S
O108        H139   0.991       .  S
O108        H153   0.990       .  S
O110        H136   0.963       .  S
O111       Zr121   2.414       .  S
O112       Zr121   2.387       .  S
O112        H137   0.961       .  S
C114        C378   1.522       .  S
C115       C2846   1.522   1_556  S
O116        H152   0.990       .  S
O117        C119   1.310       .  A
O118        C119   1.278       .  A
C119        C515   1.550       .  S
O120       Zr121   2.436       .  S
O120        H149   0.990       .  S
Zr121       O124   2.437       .  S
Zr121       O125   2.437       .  S
Zr121       O126   2.464       .  S
O122        C127   1.294       .  A
O123        H140   0.990       .  S
O123        H155   0.990       .  S
O124        H141   0.990       .  S
O125        H145   0.990       .  S
O125        H154   0.990       .  S
O126        C127   1.288       .  A
C127        C179   1.465   1_565  S
O128        H147   0.984       .  S
O128        H151   0.985       .  S
O129        H143   0.990       .  S
O129        H150   0.977       .  S
O130        C134   1.254       .  A
O131        C134   1.246       .  A
O132        H142   0.990       .  S
O133        H146   0.989       .  S
C134        C332   1.448   1_565  S
Zr157       O158   2.438       .  S
Zr157       O159   2.464       .  S
Zr157       O160   2.431       .  S
Zr157       O163   2.606       .  S
Zr157       O165   2.431       .  S
Zr157       O166   2.399       .  S
Zr157       O167   2.480       .  S
Zr157       O168   2.372       .  S
O158        H214   0.990       .  S
O158        H222   0.990       .  S
O159        C179   1.283       .  A
O160        C181   1.285       .  A
O161       Zr171   2.337       .  S
O161        C180   1.251       .  A
O162       Zr170   2.563       .  S
O162        C181   1.312       .  A
O163        C180   1.317       .  A
O164       Zr172   2.381       .  S
O164        C179   1.257   1_565  A
O165       Zr170   2.408       .  S
O165       Zr172   2.299   1_545  S
O166       Zr171   2.389       .  S
O166       Zr172   2.438   1_545  S
O166        H201   0.964       .  S
O167       Zr170   2.462       .  S
O167       Zr187   2.402       .  S
O167        H204   0.966       .  S
O168       Zr171   2.389       .  S
O168       Zr187   2.424       .  S
Zr169       O194   2.431   1_545  S
Zr169       O188   2.430       .  S
Zr169       O196   2.405   1_545  S
Zr169       O184   2.421       .  S
Zr169       O176   2.403       .  S
Zr169       O177   2.394       .  S
Zr169       O178   2.414       .  S
Zr169       O175   2.300       .  S
Zr170       O189   2.436       .  S
Zr170       O182   2.435       .  S
Zr170       O183   2.655       .  S
Zr170       O176   2.390       .  S
Zr170       O177   2.393       .  S
Zr171       O173   2.447       .  S
Zr171       O195   2.442       .  S
Zr171       O197   2.349       .  S
Zr171       O178   2.306       .  S
Zr171       O175   2.339       .  S
Zr172       O198   2.432       .  S
Zr172       O199   2.445       .  S
Zr172       O174   2.453       .  S
Zr172       O176   2.356   1_565  S
Zr172       O175   2.314   1_565  S
O173        H210   0.991       .  S
O174        H205   0.989       .  S
O174        H219   0.989       .  S
O176        H202   0.961   1_545  S
O177       Zr187   2.385       .  S
O178       Zr187   2.326       .  S
O178        H203   0.963       .  S
C180        C312   1.527       .  S
C181       C2839   1.516       .  S
O182        H218   0.990       .  S
O183        C185   1.326       .  A
O184        C185   1.280       .  A
C185        C449   1.563   1_545  S
O186       Zr187   2.436       .  S
O186        H215   0.990       .  S
Zr187       O190   2.435       .  S
Zr187       O191   2.438       .  S
Zr187       O192   2.497       .  S
O188        C193   1.287       .  A
O189        H206   0.990       .  S
O189        H221   0.990       .  S
O190        H207   0.990       .  S
O191        H211   0.990       .  S
O191        H220   0.990       .  S
O192        C193   1.297       .  A
C193        C245   1.462       .  S
O194        H213   0.987       .  S
O194        H217   0.987       .  S
O195        H209   0.988       .  S
O195        H216   0.983       .  S
O196        C200   1.263   1_565  A
O197        C200   1.232       .  A
O198        H208   0.992       .  S
O199        H212   0.990       .  S
C200        C530   1.427   1_545  S
Zr223       O224   2.436       .  S
Zr223       O225   2.477       .  S
Zr223       O226   2.443       .  S
Zr223       O229   2.608       .  S
Zr223       O231   2.430       .  S
Zr223       O232   2.393       .  S
Zr223       O233   2.475       .  S
Zr223       O234   2.397       .  S
O224        H280   0.990       .  S
O224        H288   0.990       .  S
O225        C245   1.287       .  A
O226        C247   1.291       .  A
O227       Zr237   2.362   1_565  S
O227        C246   1.260   1_565  A
O228       Zr236   2.534       .  S
O228        C247   1.308       .  A
O229        C246   1.320       .  A
O230       Zr238   2.360       .  S
O230        C245   1.252       .  A
O231       Zr236   2.409       .  S
O231       Zr238   2.297       .  S
O232       Zr237   2.375       .  S
O232       Zr238   2.435       .  S
O232        H267   0.972       .  S
O233       Zr236   2.466       .  S
O233       Zr253   2.423       .  S
O233        H270   0.966       .  S
O234       Zr237   2.368       .  S
O234       Zr253   2.426       .  S
Zr235       O260   2.439       .  S
Zr235       O254   2.462       .  S
Zr235       O262   2.437       .  S
Zr235       O250   2.455       .  S
Zr235       O242   2.386       .  S
Zr235       O243   2.375       .  S
Zr235       O244   2.420       .  S
Zr235       O241   2.277       .  S
Zr236       O255   2.433       .  S
Zr236       O248   2.435       .  S
Zr236       O249   2.611       .  S
Zr236       O242   2.408       .  S
Zr236       O243   2.420       .  S
Zr237       O239   2.444   1_545  S
Zr237       O261   2.443   1_545  S
Zr237       O263   2.325       .  S
Zr237       O244   2.310       .  S
Zr237       O241   2.301       .  S
Zr238       O264   2.412       .  S
Zr238       O265   2.432       .  S
Zr238       O240   2.452       .  S
Zr238       O242   2.352       .  S
Zr238       O241   2.307       .  S
O239        H276   0.991       .  S
O240        H271   0.991       .  S
O240        H285   0.990       .  S
O242        H268   0.962       .  S
O243       Zr253   2.409       .  S
O244       Zr253   2.379       .  S
O244        H269   0.960       .  S
C246        C510   1.530   1_545  S
C247       C2866   1.519       .  S
O248        H284   0.990       .  S
O249        C251   1.308       .  A
O250        C251   1.276       .  A
C251        C383   1.560       .  S
O252       Zr253   2.434       .  S
O252        H281   0.990       .  S
Zr253       O256   2.434       .  S
Zr253       O257   2.438       .  S
Zr253       O258   2.463       .  S
O254        C259   1.292       .  A
O255        H272   0.990       .  S
O255        H287   0.990       .  S
O256        H273   0.990       .  S
O257        H277   0.990       .  S
O257        H286   0.990       .  S
O258        C259   1.288       .  A
O260        H279   0.983       .  S
O260        H283   0.985       .  S
O261        H275   0.990       .  S
O261        H282   0.975       .  S
O262        C266   1.254       .  A
O263        C266   1.246       .  A
O264        H274   0.990       .  S
O265        H278   0.990       .  S
C266        C464   1.444       .  S
Zr289       O290   2.437       .  S
Zr289       O291   2.474       .  S
Zr289       O292   2.447       .  S
Zr289       O295   2.608       .  S
Zr289       O297   2.432       .  S
Zr289       O298   2.406       .  S
Zr289       O299   2.476       .  S
Zr289       O300   2.401       .  S
O290        H346   0.990       .  S
O290        H354   0.990       .  S
O291        C311   1.287       .  A
O292        C313   1.293       .  A
O293       Zr303   2.355       .  S
O293        C312   1.258       .  A
O294       Zr302   2.543       .  S
O294        C313   1.310       .  A
O295        C312   1.320       .  A
O296       Zr304   2.362   1_545  S
O296        C311   1.253       .  A
O297       Zr302   2.412       .  S
O297       Zr304   2.292   1_545  S
O298       Zr303   2.388       .  S
O298       Zr304   2.444   1_545  S
O298        H333   0.962       .  S
O299       Zr302   2.462       .  S
O299       Zr319   2.417       .  S
O299        H336   0.966       .  S
O300       Zr303   2.365       .  S
O300       Zr319   2.425       .  S
Zr301       O326   2.425       .  S
Zr301       O320   2.472       .  S
Zr301       O328   2.443   1_545  S
Zr301       O316   2.449       .  S
Zr301       O307   2.354       .  S
Zr301       O308   2.387       .  S
Zr301       O309   2.376       .  S
Zr301       O310   2.422       .  S
Zr302       O321   2.434       .  S
Zr302       O314   2.435       .  S
Zr302       O315   2.627       .  S
Zr302       O308   2.403       .  S
Zr302       O309   2.415       .  S
Zr303       O305   2.444       .  S
Zr303       O327   2.433       .  S
Zr303       O329   2.306       .  S
Zr303       O307   2.385       .  S
Zr303       O310   2.316       .  S
Zr304       O330   2.409       .  S
Zr304       O331   2.428       .  S
Zr304       O306   2.453       .  S
Zr304       O307   2.398   1_565  S
Zr304       O308   2.359   1_565  S
O305        H342   0.990       .  S
O306        H337   0.991       .  S
O306        H351   0.990       .  S
O308        H334   0.962       .  S
O309       Zr319   2.416       .  S
O310       Zr319   2.392       .  S
O310        H335   0.960       .  S
C311        C523   1.463   1_545  S
C313       C2826   1.515       .  S
O314        H350   0.990       .  S
O315        C317   1.316       .  A
O316        C317   1.279       .  A
O318       Zr319   2.437       .  S
O318        H347   0.990       .  S
Zr319       O322   2.434       .  S
Zr319       O323   2.438       .  S
Zr319       O324   2.457       .  S
O320        C325   1.296       .  A
O321        H338   0.990       .  S
O321        H353   0.990       .  S
O322        H339   0.990       .  S
O323        H343   0.990       .  S
O323        H352   0.990       .  S
O324        C325   1.287       .  A
C325        C377   1.466   1_556  S
O326        H345   0.983       .  S
O326        H349   0.986   1_545  S
O327        H341   0.990       .  S
O327        H348   0.975       .  S
O328        C332   1.256   1_565  A
O329        C332   1.247       .  A
O330        H340   0.990       .  S
O331        H344   0.990       .  S
Zr355       O356   2.439       .  S
Zr355       O357   2.467       .  S
Zr355       O358   2.436       .  S
Zr355       O361   2.606       .  S
Zr355       O363   2.427       .  S
Zr355       O364   2.398       .  S
Zr355       O365   2.476       .  S
Zr355       O366   2.368       .  S
O356        H412   0.989   1_554  S
O356        H420   0.990       .  S
O357        C377   1.285       .  A
O358        C379   1.285       .  A
O359       Zr369   2.348       .  S
O359        C378   1.253       .  A
O360       Zr368   2.561       .  S
O360        C379   1.313       .  A
O361        C378   1.318       .  A
O362       Zr370   2.380       .  S
O362        C377   1.258       .  A
O363       Zr368   2.403       .  S
O363       Zr370   2.297       .  S
O364       Zr369   2.379       .  S
O364       Zr370   2.436       .  S
O364        H399   0.943       .  S
O365       Zr368   2.457       .  S
O365       Zr385   2.396       .  S
O365        H402   0.965       .  S
O366       Zr369   2.391       .  S
O366       Zr385   2.422       .  S
Zr367       O392   2.438       .  S
Zr367       O386   2.468       .  S
Zr367       O394   2.404       .  S
Zr367       O382   2.422       .  S
Zr367       O374   2.410       .  S
Zr367       O375   2.395       .  S
Zr367       O376   2.425       .  S
Zr367       O373   2.304       .  S
Zr368       O387   2.437       .  S
Zr368       O380   2.435       .  S
Zr368       O381   2.650       .  S
Zr368       O374   2.383       .  S
Zr368       O375   2.389       .  S
Zr369       O371   2.440   1_545  S
Zr369       O393   2.437       .  S
Zr369       O395   2.350       .  S
Zr369       O376   2.303       .  S
Zr369       O373   2.318       .  S
Zr370       O396   2.424       .  S
Zr370       O397   2.446       .  S
Zr370       O372   2.448       .  S
Zr370       O374   2.363       .  S
Zr370       O373   2.307       .  S
O371        H408   0.990       .  S
O372        H403   0.989       .  S
O372        H417   0.990       .  S
O374        H400   0.961       .  S
O375       Zr385   2.387       .  S
O376       Zr385   2.347       .  S
O376        H401   0.964       .  S
C379       C2889   1.515       .  S
O380        H416   0.990       .  S
O381        C383   1.324       .  A
O382        C383   1.280       .  A
O384       Zr385   2.440       .  S
O384        H413   0.990       .  S
Zr385       O388   2.436       .  S
Zr385       O389   2.440       .  S
Zr385       O390   2.466       .  S
O386        C391   1.294       .  A
O387        H404   0.990       .  S
O387        H419   0.990       .  S
O388        H405   0.990       .  S
O389        H409   0.990       .  S
O389        H418   0.990       .  S
O390        C391   1.291       .  A
C391        C443   1.462       .  S
O392        H411   0.984       .  S
O392        H415   0.987       .  S
O393        H407   0.988   1_545  S
O393        H414   0.975       .  S
O394        C398   1.253       .  A
O395        C398   1.235       .  A
O396        H406   0.991       .  S
O397        H410   0.989       .  S
Zr421       O422   2.434       .  S
Zr421       O423   2.471       .  S
Zr421       O424   2.452       .  S
Zr421       O427   2.589       .  S
Zr421       O429   2.426       .  S
Zr421       O430   2.410       .  S
Zr421       O431   2.478       .  S
Zr421       O432   2.399       .  S
O422        H478   0.990       .  S
O422        H486   0.990       .  S
O423        C443   1.284   1_565  A
O424        C445   1.293       .  A
O425       Zr435   2.359       .  S
O425        C444   1.256       .  A
O426       Zr434   2.537       .  S
O426        C445   1.309       .  A
O427        C444   1.316       .  A
O428       Zr436   2.355       .  S
O428        C443   1.253       .  A
O429       Zr434   2.406       .  S
O429       Zr436   2.291   1_565  S
O430       Zr435   2.381       .  S
O430       Zr436   2.440   1_565  S
O430        H465   0.958       .  S
O431       Zr434   2.468       .  S
O431       Zr451   2.422       .  S
O431        H468   0.969       .  S
O432       Zr435   2.366       .  S
O432       Zr451   2.421       .  S
Zr433       O458   2.427       .  S
Zr433       O452   2.475       .  S
Zr433       O460   2.451   1_565  S
Zr433       O448   2.451       .  S
Zr433       O440   2.390       .  S
Zr433       O441   2.374       .  S
Zr433       O442   2.413       .  S
Zr433       O439   2.274       .  S
Zr434       O453   2.433       .  S
Zr434       O446   2.435       .  S
Zr434       O447   2.621       .  S
Zr434       O440   2.402       .  S
Zr434       O441   2.415       .  S
Zr435       O437   2.450       .  S
Zr435       O459   2.441       .  S
Zr435       O461   2.316       .  S
Zr435       O442   2.304       .  S
Zr435       O439   2.301       .  S
Zr436       O462   2.412       .  S
Zr436       O463   2.434       .  S
Zr436       O438   2.442       .  S
Zr436       O440   2.367   1_545  S
Zr436       O439   2.312   1_545  S
O437        H474   0.990       .  S
O438        H469   0.990       .  S
O438        H483   0.991       .  S
O440        H466   0.929   1_565  S
O441       Zr451   2.411       .  S
O442       Zr451   2.379       .  S
O442        H467   0.959       .  S
C445       C2819   1.520       .  S
O446        H482   0.990       .  S
O447        C449   1.312       .  A
O448        C449   1.277       .  A
O450       Zr451   2.433       .  S
O450        H479   0.990       .  S
Zr451       O454   2.434       .  S
Zr451       O455   2.437       .  S
Zr451       O456   2.463       .  S
O452        C457   1.296       .  A
O453        H470   0.990       .  S
O453        H485   0.990       .  S
O454        H471   0.990       .  S
O455        H475   0.990       .  S
O455        H484   0.990       .  S
O456        C457   1.288       .  A
C457        C509   1.465       .  S
O458        H477   0.984   1_565  S
O458        H481   0.984   1_565  S
O459        H473   0.987       .  S
O459        H480   0.980       .  S
O460        C464   1.258       .  A
O461        C464   1.247   1_565  A
O462        H472   0.990       .  S
O463        H476   0.989       .  S
Zr487       O488   2.437       .  S
Zr487       O489   2.475       .  S
Zr487       O490   2.432       .  S
Zr487       O493   2.609       .  S
Zr487       O495   2.422       .  S
Zr487       O496   2.391       .  S
Zr487       O497   2.479       .  S
Zr487       O498   2.385       .  S
O488        H544   0.990       .  S
O488        H552   0.990       .  S
O489        C509   1.286       .  A
O490        C511   1.287       .  A
O491       Zr501   2.336       .  S
O491        C510   1.252       .  A
O492       Zr500   2.550       .  S
O492        C511   1.310       .  A
O493        C510   1.318       .  A
O494       Zr502   2.366       .  S
O494        C509   1.255       .  A
O495       Zr500   2.393       .  S
O495       Zr502   2.311       .  S
O496       Zr501   2.398       .  S
O496       Zr502   2.448       .  S
O496        H531   0.962       .  S
O497       Zr500   2.457       .  S
O497       Zr517   2.411       .  S
O497        H534   0.966       .  S
O498       Zr501   2.390       .  S
O498       Zr517   2.433       .  S
Zr499       O524   2.438       .  S
Zr499       O518   2.430       .  S
Zr499       O526   2.411       .  S
Zr499       O514   2.425       .  S
Zr499       O505   2.368       .  S
Zr499       O506   2.407       .  S
Zr499       O507   2.388       .  S
Zr499       O508   2.422       .  S
Zr500       O519   2.435       .  S
Zr500       O512   2.434       .  S
Zr500       O513   2.631       .  S
Zr500       O506   2.376       .  S
Zr500       O507   2.393       .  S
Zr501       O503   2.442   1_565  S
Zr501       O525   2.440   1_565  S
Zr501       O527   2.350   1_565  S
Zr501       O505   2.393       .  S
Zr501       O508   2.316       .  S
Zr502       O528   2.434       .  S
Zr502       O529   2.400       .  S
Zr502       O504   2.442       .  S
Zr502       O505   2.327       .  S
Zr502       O506   2.369       .  S
O503        H540   0.990       .  S
O504        H535   0.990       .  S
O504        H549   0.990       .  S
O506        H532   0.962       .  S
O507       Zr517   2.384       .  S
O508       Zr517   2.328       .  S
O508        H533   0.960       .  S
C511       C2806   1.513       .  S
O512        H548   0.990       .  S
O513        C515   1.320       .  A
O514        C515   1.282       .  A
O516       Zr517   2.436       .  S
O516        H545   0.990       .  S
Zr517       O520   2.437       .  S
Zr517       O521   2.437       .  S
Zr517       O522   2.502       .  S
O518        C523   1.288       .  A
O519        H536   0.990       .  S
O519        H551   0.990       .  S
O520        H537   0.990       .  S
O521        H541   0.990       .  S
O521        H550   0.990       .  S
O522        C523   1.298       .  A
O524        H543   0.987       .  S
O524        H547   0.987       .  S
O525        H539   0.988       .  S
O525        H546   0.984   1_545  S
O526        C530   1.264       .  A
O527        C530   1.240   1_545  A
O528        H538   0.990       .  S
O529        H542   0.986       .  S
Zr553       O554   2.432       .  S
Zr553       O555   2.484       .  S
Zr553       O556   2.679       .  S
Zr553       O559   2.439       .  S
Zr553       O562   2.450       .  S
Zr553       O563   2.348       .  S
Zr553       O564   2.475       .  S
Zr553       O561   2.241       .  S
O554        H610   0.990       .  S
O554        H618   0.990       .  S
O555        C575   1.290       .  A
O556        C577   1.335       .  A
O557       Zr567   2.579       .  S
O557        C576   1.319       .  A
O558       Zr566   2.313       .  S
O558        C577   1.241       .  A
O559        C576   1.291       .  A
O560       Zr568   2.384       .  S
O560        C575   1.256       .  A
O561       Zr566   2.294       .  S
O561       Zr568   2.329       .  S
O562       Zr567   2.421       .  S
O562       Zr568   2.277       .  S
O562        H597   0.957       .  S
O563       Zr566   2.401       .  S
O563       Zr583   2.394       .  S
O563        H600   0.965       .  S
O564       Zr567   2.453       .  S
O564       Zr583   2.390       .  S
Zr565       O590   2.438       .  S
Zr565       O584   2.459       .  S
Zr565       O592   2.416       .  S
Zr565       O580   2.461       .  S
Zr565       O571   2.415       .  S
Zr565       O572   2.401       .  S
Zr565       O573   2.348       .  S
Zr565       O574   2.428       .  S
Zr566       O585   2.469       .  S
Zr566       O578   2.418       .  S
Zr566       O579   2.299       .  S
Zr566       O572   2.443       .  S
Zr566       O573   2.321       .  S
Zr567       O569   2.434       .  S
Zr567       O591   2.439       .  S
Zr567       O593   2.659       .  S
Zr567       O571   2.385       .  S
Zr567       O574   2.390       .  S
Zr568       O594   2.438       .  S
Zr568       O595   2.426       .  S
Zr568       O570   2.425       .  S
Zr568       O571   2.357       .  S
Zr568       O572   2.355       .  S
O569        H606   0.990       .  S
O570        H601   0.990       .  S
O570        H615   0.984       .  S
O572        H598   0.962       .  S
O573       Zr583   2.347       .  S
O574       Zr583   2.374       .  S
O574        H599   0.965       .  S
C575        C655   1.451       .  S
C576       C2796   1.523       .  S
C577        C841   1.530       .  S
O578        H614   0.988       .  S
O579        C581   1.242       .  A
O580        C581   1.273       .  A
C581        C911   1.502       .  S
O582       Zr583   2.436       .  S
O582        H611   0.990       .  S
Zr583       O586   2.436       .  S
Zr583       O587   2.443       .  S
Zr583       O588   2.437       .  S
O584        C589   1.292       .  A
O585        H602   0.983       .  S
O585        H617   0.991       .  S
O586        H603   0.990       .  S
O587        H607   0.990       .  S
O587        H616   0.990       .  S
O588        C589   1.286       .  A
C589        C773   1.449       .  S
O590        H609   0.989       .  S
O590        H613   0.988       .  S
O591        H605   0.990       .  S
O591        H612   0.990       .  S
O592        C596   1.275       .  A
O593        C596   1.327       .  A
O594        H604   0.990       .  S
O595        H608   0.990       .  S
C596       C1058   1.557       .  S
Zr619       O620   2.433       .  S
Zr619       O621   2.483       .  S
Zr619       O622   2.672       .  S
Zr619       O625   2.440       .  S
Zr619       O628   2.451       .  S
Zr619       O629   2.351       .  S
Zr619       O630   2.469       .  S
Zr619       O627   2.237       .  S
O620        H676   0.990       .  S
O620        H684   0.990       .  S
O621        C641   1.289       .  A
O622        C643   1.335       .  A
O623       Zr633   2.588       .  S
O623        C642   1.320       .  A
O624       Zr632   2.316       .  S
O624        C643   1.242       .  A
O625        C642   1.292       .  A
O626       Zr634   2.362       .  S
O626        C641   1.255       .  A
O627       Zr632   2.289       .  S
O627       Zr634   2.330       .  S
O628       Zr633   2.411       .  S
O628       Zr634   2.288       .  S
O628        H663   0.958       .  S
O629       Zr632   2.400       .  S
O629       Zr649   2.400       .  S
O629        H666   0.965       .  S
O630       Zr633   2.452       .  S
O630       Zr649   2.397       .  S
Zr631       O656   2.420       .  S
Zr631       O650   2.454       .  S
Zr631       O658   2.432       .  S
Zr631       O646   2.471       .  S
Zr631       O637   2.423       .  S
Zr631       O638   2.400       .  S
Zr631       O639   2.344       .  S
Zr631       O640   2.420       .  S
Zr632       O651   2.468       .  S
Zr632       O644   2.423       .  S
Zr632       O645   2.305       .  S
Zr632       O638   2.448       .  S
Zr632       O639   2.327       .  S
Zr633       O635   2.435       .  S
Zr633       O657   2.437       .  S
Zr633       O659   2.646       .  S
Zr633       O637   2.398       .  S
Zr633       O640   2.410       .  S
Zr634       O660   2.441       .  S
Zr634       O661   2.430       .  S
Zr634       O636   2.434       .  S
Zr634       O637   2.361       .  S
Zr634       O638   2.323       .  S
O635        H672   0.990       .  S
O636        H667   0.990       .  S
O636        H681   0.991       .  S
O638        H664   0.962       .  S
O639       Zr649   2.346       .  S
O640       Zr649   2.386       .  S
O640        H665   0.965       .  S
C641        C721   1.443       .  S
C642       C2786   1.531       .  S
C643        C973   1.529       .  S
O644        H680   0.984       .  S
O645        C647   1.244       .  A
O646        C647   1.278       .  A
C647        C845   1.507       .  S
O648       Zr649   2.437       .  S
O648        H677   0.990       .  S
Zr649       O652   2.437       .  S
Zr649       O653   2.443       .  S
Zr649       O654   2.448       .  S
O650        C655   1.286       .  A
O651        H668   0.985       .  S
O651        H683   0.991       .  S
O652        H669   0.990       .  S
O653        H673   0.990       .  S
O653        H682   0.990       .  S
O654        C655   1.286       .  A
O656        H675   0.983       .  S
O656        H679   0.986       .  S
O657        H671   0.990       .  S
O657        H678   0.990       .  S
O658        C662   1.278       .  A
O659        C662   1.323       .  A
O660        H670   0.990       .  S
O661        H674   0.989       .  S
C662        C926   1.566       .  S
Zr685       O686   2.433   1_554  S
Zr685       O687   2.478       .  S
Zr685       O688   2.669       .  S
Zr685       O691   2.430       .  S
Zr685       O694   2.460       .  S
Zr685       O695   2.348       .  S
Zr685       O696   2.471       .  S
Zr685       O693   2.244       .  S
O686        H742   0.990       .  S
O686        H750   0.990   1_556  S
O687        C707   1.288   1_554  A
O688        C709   1.334       .  A
O689       Zr699   2.582       .  S
O689        C708   1.320       .  A
O690       Zr698   2.312       .  S
O690        C709   1.242       .  A
O691        C708   1.291       .  A
O692       Zr700   2.379       .  S
O692        C707   1.255   1_554  A
O693       Zr698   2.293       .  S
O693       Zr700   2.328       .  S
O694       Zr699   2.426       .  S
O694       Zr700   2.282       .  S
O694        H729   0.959       .  S
O695       Zr698   2.403       .  S
O695       Zr715   2.394       .  S
O695        H732   0.965       .  S
O696       Zr699   2.454       .  S
O696       Zr715   2.387       .  S
Zr697       O722   2.422       .  S
Zr697       O716   2.445       .  S
Zr697       O724   2.404       .  S
Zr697       O712   2.464       .  S
Zr697       O703   2.416       .  S
Zr697       O704   2.385       .  S
Zr697       O705   2.355       .  S
Zr697       O706   2.419       .  S
Zr698       O717   2.463       .  S
Zr698       O710   2.426       .  S
Zr698       O711   2.308       .  S
Zr698       O704   2.419       .  S
Zr698       O705   2.323       .  S
Zr699       O701   2.435       .  S
Zr699       O723   2.436       .  S
Zr699       O725   2.686       .  S
Zr699       O703   2.371       .  S
Zr699       O706   2.385       .  S
Zr700       O726   2.434       .  S
Zr700       O727   2.414       .  S
Zr700       O702   2.444       .  S
Zr700       O703   2.358       .  S
Zr700       O704   2.329       .  S
O701        H738   0.990       .  S
O702        H733   0.990       .  S
O702        H747   0.986       .  S
O704        H730   0.957       .  S
O705       Zr715   2.344       .  S
O706       Zr715   2.378       .  S
O706        H731   0.964       .  S
C707        C787   1.449       .  S
C708       C2926   1.521       .  S
C709       C1039   1.523   1_554  S
O710        H746   0.988       .  S
O711        C713   1.245       .  A
O712        C713   1.275       .  A
C713        C977   1.502       .  S
O714       Zr715   2.436       .  S
O714        H743   0.990       .  S
Zr715       O718   2.436       .  S
Zr715       O719   2.441       .  S
Zr715       O720   2.441       .  S
O716        C721   1.290       .  A
O717        H734   0.984       .  S
O717        H749   0.991       .  S
O718        H735   0.990       .  S
O719        H739   0.990       .  S
O719        H748   0.990       .  S
O720        C721   1.287       .  A
O722        H741   0.989       .  S
O722        H745   0.987       .  S
O723        H737   0.990       .  S
O723        H744   0.990       .  S
O724        C728   1.275       .  A
O725        C728   1.334       .  A
O726        H736   0.990       .  S
O727        H740   0.991       .  S
C728        C860   1.565       .  S
Zr751       O752   2.433       .  S
Zr751       O753   2.482       .  S
Zr751       O754   2.665       .  S
Zr751       O757   2.432       .  S
Zr751       O760   2.454       .  S
Zr751       O761   2.354       .  S
Zr751       O762   2.467       .  S
Zr751       O759   2.239       .  S
O752        H808   0.990       .  S
O752        H816   0.990       .  S
O753        C773   1.289       .  A
O754        C775   1.332       .  A
O755       Zr765   2.577       .  S
O755        C774   1.318       .  A
O756       Zr764   2.318       .  S
O756        C775   1.243       .  A
O757        C774   1.290       .  A
O758       Zr766   2.369       .  S
O758        C773   1.259       .  A
O759       Zr764   2.289       .  S
O759       Zr766   2.335       .  S
O760       Zr765   2.412       .  S
O760       Zr766   2.288       .  S
O760        H795   0.959       .  S
O761       Zr764   2.394       .  S
O761       Zr781   2.400       .  S
O761        H798   0.965       .  S
O762       Zr765   2.449       .  S
O762       Zr781   2.394       .  S
Zr763       O788   2.423       .  S
Zr763       O782   2.451       .  S
Zr763       O790   2.430       .  S
Zr763       O778   2.468       .  S
Zr763       O769   2.426       .  S
Zr763       O770   2.407       .  S
Zr763       O771   2.349       .  S
Zr763       O772   2.425       .  S
Zr764       O783   2.469       .  S
Zr764       O776   2.418       .  S
Zr764       O777   2.301       .  S
Zr764       O770   2.442       .  S
Zr764       O771   2.326       .  S
Zr765       O767   2.434       .  S
Zr765       O789   2.436       .  S
Zr765       O791   2.646       .  S
Zr765       O769   2.384       .  S
Zr765       O772   2.407       .  S
Zr766       O792   2.439       .  S
Zr766       O793   2.432       .  S
Zr766       O768   2.437       .  S
Zr766       O769   2.352       .  S
Zr766       O770   2.324       .  S
O767        H804   0.990       .  S
O768        H799   0.990       .  S
O768        H813   0.985       .  S
O770        H796   0.962       .  S
O771       Zr781   2.345       .  S
O772       Zr781   2.378       .  S
O772        H797   0.965       .  S
C774       C2776   1.523       .  S
C775        C907   1.526       .  S
O776        H812   0.985       .  S
O777        C779   1.244       .  A
O778        C779   1.276       .  A
C779       C1043   1.506       .  S
O780       Zr781   2.436       .  S
O780        H809   0.990       .  S
Zr781       O784   2.436       .  S
Zr781       O785   2.442       .  S
Zr781       O786   2.450       .  S
O782        C787   1.288       .  A
O783        H800   0.985       .  S
O783        H815   0.991       .  S
O784        H801   0.990       .  S
O785        H805   0.990       .  S
O785        H814   0.990       .  S
O786        C787   1.287       .  A
O788        H807   0.987       .  S
O788        H811   0.987   1_556  S
O789        H803   0.990       .  S
O789        H810   0.990       .  S
O790        C794   1.275       .  A
O791        C794   1.322       .  A
O792        H802   0.990       .  S
O793        H806   0.990       .  S
C794        C992   1.562   1_556  S
Zr817       O818   2.433       .  S
Zr817       O819   2.485       .  S
Zr817       O820   2.674       .  S
Zr817       O823   2.441       .  S
Zr817       O826   2.453       .  S
Zr817       O827   2.355       .  S
Zr817       O828   2.469       .  S
Zr817       O825   2.236       .  S
O818        H874   0.990       .  S
O818        H882   0.990       .  S
O819        C839   1.290       .  A
O820        C841   1.335       .  A
O821       Zr831   2.580       .  S
O821        C840   1.318       .  A
O822       Zr830   2.319       .  S
O822        C841   1.243       .  A
O823        C840   1.293       .  A
O824       Zr832   2.363       .  S
O824        C839   1.254       .  A
O825       Zr830   2.290       .  S
O825       Zr832   2.330       .  S
O826       Zr831   2.407       .  S
O826       Zr832   2.289       .  S
O826        H861   0.957       .  S
O827       Zr830   2.398       .  S
O827       Zr847   2.402       .  S
O827        H864   0.965       .  S
O828       Zr831   2.451       .  S
O828       Zr847   2.394       .  S
Zr829       O854   2.421       .  S
Zr829       O848   2.457       .  S
Zr829       O856   2.433       .  S
Zr829       O844   2.471       .  S
Zr829       O835   2.425       .  S
Zr829       O836   2.402       .  S
Zr829       O837   2.346       .  S
Zr829       O838   2.420       .  S
Zr830       O849   2.468       .  S
Zr830       O842   2.422       .  S
Zr830       O843   2.306       .  S
Zr830       O836   2.446       .  S
Zr830       O837   2.328       .  S
Zr831       O833   2.435       .  S
Zr831       O855   2.436       .  S
Zr831       O857   2.642       .  S
Zr831       O835   2.392       .  S
Zr831       O838   2.408       .  S
Zr832       O858   2.438       .  S
Zr832       O859   2.432       .  S
Zr832       O834   2.430       .  S
Zr832       O835   2.365       .  S
Zr832       O836   2.320       .  S
O833        H870   0.990       .  S
O834        H865   0.989       .  S
O834        H879   0.990       .  S
O836        H862   0.962       .  S
O837       Zr847   2.347       .  S
O838       Zr847   2.385       .  S
O838        H863   0.965       .  S
C839        C919   1.444       .  S
C840       C2899   1.529       .  S
O842        H878   0.985       .  S
O843        C845   1.244       .  A
O844        C845   1.278       .  A
O846       Zr847   2.436       .  S
O846        H875   0.990       .  S
Zr847       O850   2.438       .  S
Zr847       O851   2.442       .  S
Zr847       O852   2.449       .  S
O848        C853   1.287       .  A
O849        H866   0.986       .  S
O849        H881   0.991       .  S
O850        H867   0.990       .  S
O851        H871   0.990       .  S
O851        H880   0.990       .  S
O852        C853   1.287       .  A
C853        C971   1.452       .  S
O854        H873   0.983       .  S
O854        H877   0.985       .  S
O855        H869   0.990       .  S
O855        H876   0.990       .  S
O856        C860   1.278       .  A
O857        C860   1.322       .  A
O858        H868   0.990       .  S
O859        H872   0.990       .  S
Zr883       O884   2.434       .  S
Zr883       O885   2.473       .  S
Zr883       O886   2.675       .  S
Zr883       O889   2.437       .  S
Zr883       O892   2.457       .  S
Zr883       O893   2.349       .  S
Zr883       O894   2.470       .  S
Zr883       O891   2.246       .  S
O884        H940   0.990       .  S
O884        H948   0.990       .  S
O885        C905   1.287       .  A
O886        C907   1.335       .  A
O887       Zr897   2.585       .  S
O887        C906   1.319       .  A
O888       Zr896   2.312       .  S
O888        C907   1.243       .  A
O889        C906   1.292       .  A
O890       Zr898   2.378       .  S
O890        C905   1.255       .  A
O891       Zr896   2.294       .  S
O891       Zr898   2.328       .  S
O892       Zr897   2.420       .  S
O892       Zr898   2.282       .  S
O892        H927   0.958       .  S
O893       Zr896   2.407       .  S
O893       Zr913   2.396       .  S
O893        H930   0.965       .  S
O894       Zr897   2.456       .  S
O894       Zr913   2.392       .  S
Zr895       O920   2.413       .  S
Zr895       O914   2.439       .  S
Zr895       O922   2.403       .  S
Zr895       O910   2.467       .  S
Zr895       O901   2.414       .  S
Zr895       O902   2.383       .  S
Zr895       O903   2.352       .  S
Zr895       O904   2.417       .  S
Zr896       O915   2.463       .  S
Zr896       O908   2.426       .  S
Zr896       O909   2.311       .  S
Zr896       O902   2.416       .  S
Zr896       O903   2.324       .  S
Zr897       O899   2.434       .  S
Zr897       O921   2.437       .  S
Zr897       O923   2.686       .  S
Zr897       O901   2.370       .  S
Zr897       O904   2.389       .  S
Zr898       O924   2.433       .  S
Zr898       O925   2.413       .  S
Zr898       O900   2.445       .  S
Zr898       O901   2.356       .  S
Zr898       O902   2.325       .  S
O899        H936   0.990       .  S
O900        H931   0.990       .  S
O900        H945   0.986       .  S
O902        H928   0.956       .  S
O903       Zr913   2.340       .  S
O904       Zr913   2.378       .  S
O904        H929   0.965       .  S
C905       C1051   1.443       .  S
C906       C2766   1.526       .  S
O908        H944   0.988       .  S
O909        C911   1.245       .  A
O910        C911   1.276       .  A
O912       Zr913   2.435       .  S
O912        H941   0.990       .  S
Zr913       O916   2.437       .  S
Zr913       O917   2.440       .  S
Zr913       O918   2.449       .  S
O914        C919   1.289       .  A
O915        H932   0.984       .  S
O915        H947   0.990       .  S
O916        H933   0.990       .  S
O917        H937   0.990       .  S
O917        H946   0.990       .  S
O918        C919   1.288       .  A
O920        H939   0.989       .  S
O920        H943   0.986       .  S
O921        H935   0.990       .  S
O921        H942   0.990       .  S
O922        C926   1.275       .  A
O923        C926   1.335       .  A
O924        H934   0.990       .  S
O925        H938   0.991       .  S
Zr949       O950   2.433       .  S
Zr949       O951   2.484       .  S
Zr949       O952   2.683       .  S
Zr949       O955   2.439       .  S
Zr949       O958   2.452       .  S
Zr949       O959   2.345       .  S
Zr949       O960   2.473       .  S
Zr949       O957   2.242       .  S
O950       H1006   0.990       .  S
O950       H1014   0.990       .  S
O951        C971   1.290       .  A
O952        C973   1.336       .  A
O953       Zr963   2.581       .  S
O953        C972   1.319       .  A
O954       Zr962   2.310       .  S
O954        C973   1.240       .  A
O955        C972   1.293       .  A
O956       Zr964   2.380       .  S
O956        C971   1.257       .  A
O957       Zr962   2.293       .  S
O957       Zr964   2.332       .  S
O958       Zr963   2.420       .  S
O958       Zr964   2.281       .  S
O958        H993   0.958       .  S
O959       Zr962   2.400       .  S
O959       Zr979   2.389       .  S
O959        H996   0.965       .  S
O960       Zr963   2.451       .  S
O960       Zr979   2.385       .  S
Zr961       O986   2.438       .  S
Zr961       O980   2.454       .  S
Zr961       O988   2.416       .  S
Zr961       O976   2.462       .  S
Zr961       O967   2.416       .  S
Zr961       O968   2.401       .  S
Zr961       O969   2.347       .  S
Zr961       O970   2.430       .  S
Zr962       O981   2.470       .  S
Zr962       O974   2.418       .  S
Zr962       O975   2.299       .  S
Zr962       O968   2.441       .  S
Zr962       O969   2.316       .  S
Zr963       O965   2.435       .  S
Zr963       O987   2.437       .  S
Zr963       O989   2.667       .  S
Zr963       O967   2.384       .  S
Zr963       O970   2.390       .  S
Zr964       O990   2.439       .  S
Zr964       O991   2.425       .  S
Zr964       O966   2.429       .  S
Zr964       O967   2.355       .  S
Zr964       O968   2.351       .  S
O965       H1002   0.990       .  S
O966        H997   0.990       .  S
O966       H1011   0.984       .  S
O968        H994   0.963       .  S
O969       Zr979   2.347       .  S
O970       Zr979   2.375       .  S
O970        H995   0.965       .  S
C972       C2756   1.519       .  S
O974       H1010   0.988       .  S
O975        C977   1.242       .  A
O976        C977   1.273       .  A
O978       Zr979   2.436       .  S
O978       H1007   0.990       .  S
Zr979       O982   2.436       .  S
Zr979       O983   2.442       .  S
Zr979       O984   2.427       .  S
O980        C985   1.291       .  A
O981        H998   0.983       .  S
O981       H1013   0.991       .  S
O982        H999   0.990       .  S
O983       H1003   0.990       .  S
O983       H1012   0.990       .  S
O984        C985   1.284       .  A
C985       C1037   1.441       .  S
O986       H1005   0.989       .  S
O986       H1009   0.988       .  S
O987       H1001   0.990       .  S
O987       H1008   0.990       .  S
O988        C992   1.275       .  A
O989        C992   1.329       .  A
O990       H1000   0.990       .  S
O991       H1004   0.990       .  S
Zr1015     O1016   2.434   1_556  S
Zr1015     O1017   2.471   1_556  S
Zr1015     O1018   2.664   1_556  S
Zr1015     O1021   2.436       .  S
Zr1015     O1024   2.457       .  S
Zr1015     O1025   2.351       .  S
Zr1015     O1026   2.466       .  S
Zr1015     O1023   2.244       .  S
O1016      H1072   0.990       .  S
O1016      H1080   0.990       .  S
O1017      C1037   1.286       .  A
O1018      C1039   1.332   1_554  A
O1019     Zr1029   2.574       .  S
O1019      C1038   1.317       .  A
O1020     Zr1028   2.316       .  S
O1020      C1039   1.243       .  A
O1021      C1038   1.292       .  A
O1022     Zr1030   2.367       .  S
O1022      C1037   1.258   1_556  A
O1023     Zr1028   2.288       .  S
O1023     Zr1030   2.332       .  S
O1024     Zr1029   2.413       .  S
O1024     Zr1030   2.286       .  S
O1024      H1059   0.960       .  S
O1025     Zr1028   2.399       .  S
O1025     Zr1045   2.398       .  S
O1025      H1062   0.965       .  S
O1026     Zr1029   2.448       .  S
O1026     Zr1045   2.392       .  S
Zr1027     O1052   2.424       .  S
Zr1027     O1046   2.448       .  S
Zr1027     O1054   2.428       .  S
Zr1027     O1042   2.470       .  S
Zr1027     O1033   2.427       .  S
Zr1027     O1034   2.402       .  S
Zr1027     O1035   2.348       .  S
Zr1027     O1036   2.423       .  S
Zr1028     O1047   2.468       .  S
Zr1028     O1040   2.419       .  S
Zr1028     O1041   2.304       .  S
Zr1028     O1034   2.437       .  S
Zr1028     O1035   2.326       .  S
Zr1029     O1031   2.434       .  S
Zr1029     O1053   2.437       .  S
Zr1029     O1055   2.640       .  S
Zr1029     O1033   2.391       .  S
Zr1029     O1036   2.404       .  S
Zr1030     O1056   2.437       .  S
Zr1030     O1057   2.417       .  S
Zr1030     O1032   2.444       .  S
Zr1030     O1033   2.352       .  S
Zr1030     O1034   2.316       .  S
O1031      H1068   0.990       .  S
O1032      H1063   0.991       .  S
O1032      H1077   0.984       .  S
O1034      H1060   0.961       .  S
O1035     Zr1045   2.347       .  S
O1036     Zr1045   2.377       .  S
O1036      H1061   0.965       .  S
C1038      C2749   1.521   1_556  S
O1040      H1076   0.985   1_556  S
O1041      C1043   1.244       .  A
O1042      C1043   1.276       .  A
O1044     Zr1045   2.436       .  S
O1044      H1073   0.990       .  S
Zr1045     O1048   2.436       .  S
Zr1045     O1049   2.441       .  S
Zr1045     O1050   2.443       .  S
O1046      C1051   1.288       .  A
O1047      H1064   0.985       .  S
O1047      H1079   0.991       .  S
O1048      H1065   0.990       .  S
O1049      H1069   0.990       .  S
O1049      H1078   0.990       .  S
O1050      C1051   1.286       .  A
O1052      H1071   0.985       .  S
O1052      H1075   0.987       .  S
O1053      H1067   0.990       .  S
O1053      H1074   0.990       .  S
O1054      C1058   1.275       .  A
O1055      C1058   1.321       .  A
O1056      H1066   0.990       .  S
O1057      H1070   0.990       .  S
C1081      N1082   1.368       .  A
C1081      N1086   1.379       .  A
C1081      C2809   1.509       .  S
N1082      C1083   1.363       .  A
C1083      N1084   1.353       .  A
C1083      C2736   1.492       .  S
N1084      C1085   1.352       .  A
C1085      N1086   1.370       .  A
C1085      C2729   1.498       .  S
C1087      N1088   1.371       .  A
C1087      N1092   1.377       .  A
C1087      C2849   1.516       .  S
N1088      C1089   1.366       .  A
C1089      N1090   1.358       .  A
C1089      C2716   1.495       .  S
N1090      C1091   1.354       .  A
C1091      N1092   1.367       .  A
C1091      C2726   1.497       .  S
C1093      N1094   1.371       .  A
C1093      N1098   1.382       .  A
C1093      C2746   1.514       .  S
N1094      C1095   1.364       .  A
C1095      N1096   1.357       .  A
C1095      C2719   1.499       .  S
N1096      C1097   1.355       .  A
C1097      N1098   1.375       .  A
C1097      C2709   1.511       .  S
C1099      N1100   1.365       .  A
C1099      N1104   1.383       .  A
C1099      C2799   1.517       .  S
N1100      C1101   1.360       .  A
C1101      N1102   1.356       .  A
C1101      C2739   1.491       .  S
N1102      C1103   1.355       .  A
C1103      N1104   1.379       .  A
C1103      C2706   1.506       .  S
C1105      N1106   1.369       .  A
C1105      N1110   1.384       .  A
C1105      C2789   1.522       .  S
N1106      C1107   1.364       .  A
C1107      N1108   1.357       .  A
C1107      C2699   1.496       .  S
N1108      C1109   1.355       .  A
C1109      N1110   1.377       .  A
C1109      C2686   1.512       .  S
C1111      N1112   1.384       .  A
C1111      N1116   1.371       .  A
C1111      C2769   1.522       .  S
N1112      C1113   1.374       .  A
C1113      N1114   1.354       .  A
C1113      C2689   1.512       .  S
N1114      C1115   1.357       .  A
C1115      N1116   1.364       .  A
C1115      C2676   1.493       .  S
C1117      N1118   1.371       .  A
C1117      N1122   1.376       .  A
C1117      C2666   1.512       .  S
N1118      C1119   1.366       .  A
C1119      N1120   1.357       .  A
C1119      C2696   1.494       .  S
N1120      C1121   1.353       .  A
C1121      N1122   1.366       .  A
C1121      C2659   1.495       .  S
C1123      N1124   1.376       .  A
C1123      N1128   1.372       .  A
C1123      C2646   1.514       .  S
N1124      C1125   1.367       .  A
C1125      N1126   1.353       .  A
C1125      C2656   1.496       .  S
N1126      C1127   1.357       .  A
C1127      N1128   1.366       .  A
C1127      C2679   1.495       .  S
C1129      N1130   1.367       .  A
C1129      N1134   1.382       .  A
C1129      C2759   1.513       .  S
N1130      C1131   1.363       .  A
C1131      N1132   1.357       .  A
C1131      C2636   1.494       .  S
N1132      C1133   1.353       .  A
C1133      N1134   1.376       .  A
C1133      C2626   1.507       .  S
C1135      N1136   1.366       .  A
C1135      N1140   1.383       .  A
C1135      C2779   1.515       .  S
N1136      C1137   1.361       .  A
C1137      N1138   1.357       .  A
C1137      C2616   1.496       .  S
N1138      C1139   1.355       .  A
C1139      N1140   1.377       .  A
C1139      C2629   1.510       .  S
C1141      N1142   1.367       .  A
C1141      N1146   1.375       .  A
C1141      C2606   1.504       .  S
N1142      C1143   1.363       .  A
C1143      N1144   1.358       .  A
C1143      C2639   1.495       .  S
N1144      C1145   1.354       .  A
C1145      N1146   1.369       .  A
C1145      C2596   1.494       .  S
C1147      N1148   1.371       .  A
C1147      N1152   1.376       .  A
C1147      C2586   1.509       .  S
N1148      C1149   1.367       .  A
C1149      N1150   1.355       .  A
C1149      C2619   1.497       .  S
N1150      C1151   1.350       .  A
C1151      N1152   1.367       .  A
C1151      C2599   1.493       .  S
C1153      N1154   1.378       .  A
C1153      N1158   1.368       .  A
C1153      C2569   1.511       .  S
N1154      C1155   1.370       .  A
C1155      N1156   1.354       .  A
C1155      C2556   1.500       .  S
N1156      C1157   1.356       .  A
C1157      N1158   1.362       .  A
C1157      C2576   1.490       .  S
C1159      N1160   1.379       .  A
C1159      N1164   1.370       .  A
C1159      C2539   1.513       .  S
N1160      C1161   1.369       .  A
C1161      N1162   1.351       .  A
C1161      C2559   1.495       .  S
N1162      C1163   1.354       .  A
C1163      N1164   1.365       .  A
C1163      C2546   1.491       .  S
C1165      N1166   1.365       .  A
C1165      N1170   1.382       .  A
C1165      C2526   1.513       .  S
N1166      C1167   1.360       .  A
C1167      N1168   1.357       .  A
C1167      C2579   1.489       .  S
N1168      C1169   1.354       .  A
C1169      N1170   1.376       .  A
C1169      C2516   1.507       .  S
C1171      N1172   1.365       .  A
C1171      N1176   1.381       .  A
C1171      C2509   1.514       .  S
N1172      C1173   1.361       .  A
C1173      N1174   1.360       .  A
C1173      C2549   1.494       .  S
N1174      C1175   1.356       .  A
C1175      N1176   1.375       .  A
C1175      C2519   1.507       .  S
C1177      N1178   1.377       .  A
C1177      N1182   1.369       .  A
C1177      C2856   1.515       .  S
N1178      C1179   1.370   1_565  A
C1179      N1180   1.353       .  A
C1179      C2486   1.493       .  S
N1180      C1181   1.356       .  A
C1181      N1182   1.364   1_545  A
C1181      C2496   1.489       .  S
C1183      N1184   1.375       .  A
C1183      N1188   1.372       .  A
C1183      C2829   1.516       .  S
N1184      C1185   1.366       .  A
C1185      N1186   1.353       .  A
C1185      C2489   1.493       .  S
N1186      C1187   1.357       .  A
C1187      N1188   1.367       .  A
C1187      C2476   1.496       .  S
C1189      N1190   1.366       .  A
C1189      N1194   1.384       .  A
C1189      C2466   1.524       .  S
N1190      C1191   1.362   1_565  A
C1191      N1192   1.357       .  A
C1191      C2499   1.492       .  S
N1192      C1193   1.355       .  A
C1193      N1194   1.379   1_545  A
C1193      C2456   1.512       .  S
C1195      N1196   1.383       .  A
C1195      N1200   1.369       .  A
C1195      C2446   1.521       .  S
N1196      C1197   1.377       .  A
C1197      N1198   1.355       .  A
C1197      C2459   1.510       .  S
N1198      C1199   1.358       .  A
C1199      N1200   1.365       .  A
C1199      C2479   1.495       .  S
C1201      N1202   1.378       .  A
C1201      N1206   1.373       .  A
C1201      C2816   1.517       .  S
N1202      C1203   1.369       .  A
C1203      N1204   1.355       .  A
C1203      C2426   1.502   1_565  S
N1204      C1205   1.356       .  A
C1205      N1206   1.367       .  A
C1205      C2439   1.497       .  S
C1207      N1208   1.369       .  A
C1207      N1212   1.380       .  A
C1207      C2836   1.515       .  S
N1208      C1209   1.363       .  A
C1209      N1210   1.354       .  A
C1209      C2419   1.490       .  S
N1210      C1211   1.353       .  A
C1211      N1212   1.371       .  A
C1211      C2429   1.499       .  S
C1213      N1214   1.381       .  A
C1213      N1218   1.369       .  A
C1213      C2406   1.517       .  S
N1214      C1215   1.374       .  A
C1215      N1216   1.357       .  A
C1215      C2396   1.508       .  S
N1216      C1217   1.358       .  A
C1217      N1218   1.364       .  A
C1217      C2436   1.496       .  S
C1219      N1220   1.367       .  A
C1219      N1224   1.381       .  A
C1219      C2386   1.516       .  S
N1220      C1221   1.363       .  A
C1221      N1222   1.357       .  A
C1221      C2416   1.493       .  S
N1222      C1223   1.354       .  A
C1223      N1224   1.375       .  A
C1223      C2399   1.504       .  S
Zr1225     O1226   2.434   1_556  S
Zr1225     O1227   2.482   1_556  S
Zr1225     O1228   2.665   1_556  S
Zr1225     O1231   2.439       .  S
Zr1225     O1234   2.452       .  S
Zr1225     O1235   2.349       .  S
Zr1225     O1236   2.472       .  S
Zr1225     O1233   2.240       .  S
O1226      H1282   0.990       .  S
O1226      H1290   0.990       .  S
O1227      C1247   1.288       .  A
O1228      C1249   1.334   1_554  A
O1229     Zr1239   2.576       .  S
O1229      C1248   1.318       .  A
O1230     Zr1238   2.320       .  S
O1230      C1249   1.242       .  A
O1231      C1248   1.292       .  A
O1232     Zr1240   2.369   1_554  S
O1232      C1247   1.256       .  A
O1233     Zr1238   2.294       .  S
O1233     Zr1240   2.336       .  S
O1234     Zr1239   2.416       .  S
O1234     Zr1240   2.291       .  S
O1234      H1269   0.958       .  S
O1235     Zr1238   2.399       .  S
O1235     Zr1255   2.396       .  S
O1235      H1272   0.965       .  S
O1236     Zr1239   2.451       .  S
O1236     Zr1255   2.389       .  S
Zr1237     O1262   2.444       .  S
Zr1237     O1256   2.446       .  S
Zr1237     O1264   2.417       .  S
Zr1237     O1252   2.465       .  S
Zr1237     O1243   2.415       .  S
Zr1237     O1244   2.390       .  S
Zr1237     O1245   2.354       .  S
Zr1237     O1246   2.428       .  S
Zr1238     O1257   2.467   1_565  S
Zr1238     O1250   2.411       .  S
Zr1238     O1251   2.301   1_565  S
Zr1238     O1244   2.440       .  S
Zr1238     O1245   2.318       .  S
Zr1239     O1241   2.435       .  S
Zr1239     O1263   2.436       .  S
Zr1239     O1265   2.666       .  S
Zr1239     O1243   2.374       .  S
Zr1239     O1246   2.386       .  S
Zr1240     O1266   2.442       .  S
Zr1240     O1267   2.438       .  S
Zr1240     O1242   2.433       .  S
Zr1240     O1243   2.360       .  S
Zr1240     O1244   2.338       .  S
O1241      H1278   0.990       .  S
O1242      H1273   0.989       .  S
O1242      H1287   0.985       .  S
O1244      H1270   0.960       .  S
O1245     Zr1255   2.347       .  S
O1246     Zr1255   2.376       .  S
O1246      H1271   0.964       .  S
C1247      C1327   1.447       .  S
C1248      C2376   1.524   1_556  S
C1249      C1579   1.526   1_566  S
O1250      H1286   0.983   1_556  S
O1251      C1253   1.244       .  A
O1252      C1253   1.273   1_565  A
C1253      C1649   1.504       .  S
O1254     Zr1255   2.437       .  S
O1254      H1283   0.990       .  S
Zr1255     O1258   2.437       .  S
Zr1255     O1259   2.443       .  S
Zr1255     O1260   2.438       .  S
O1256      C1261   1.290       .  A
O1257      H1274   0.991       .  S
O1257      H1289   0.985       .  S
O1258      H1275   0.990       .  S
O1259      H1279   0.990       .  S
O1259      H1288   0.990       .  S
O1260      C1261   1.286       .  A
C1261      C1379   1.440   1_565  S
O1262      H1281   0.988       .  S
O1262      H1285   0.987       .  S
O1263      H1277   0.990       .  S
O1263      H1284   0.990       .  S
O1264      C1268   1.275       .  A
O1265      C1268   1.329       .  A
O1266      H1276   0.990       .  S
O1267      H1280   0.990       .  S
C1268      C1730   1.561       .  S
Zr1291     O1292   2.434       .  S
Zr1291     O1293   2.474       .  S
Zr1291     O1294   2.687       .  S
Zr1291     O1297   2.443       .  S
Zr1291     O1300   2.459       .  S
Zr1291     O1301   2.349       .  S
Zr1291     O1302   2.473       .  S
Zr1291     O1299   2.246       .  S
O1292      H1348   0.990       .  S
O1292      H1356   0.990       .  S
O1293      C1313   1.288   1_565  A
O1294      C1315   1.338       .  A
O1295     Zr1305   2.591       .  S
O1295      C1314   1.321       .  A
O1296     Zr1304   2.312       .  S
O1296      C1315   1.242       .  A
O1297      C1314   1.294       .  A
O1298     Zr1306   2.381       .  S
O1298      C1313   1.256       .  A
O1299     Zr1304   2.292       .  S
O1299     Zr1306   2.328   1_565  S
O1300     Zr1305   2.418       .  S
O1300     Zr1306   2.281   1_565  S
O1300      H1335   0.958       .  S
O1301     Zr1304   2.402       .  S
O1301     Zr1321   2.397       .  S
O1301      H1338   0.965       .  S
O1302     Zr1305   2.454       .  S
O1302     Zr1321   2.393       .  S
Zr1303     O1328   2.420   1_565  S
Zr1303     O1322   2.447       .  S
Zr1303     O1330   2.417       .  S
Zr1303     O1318   2.466   1_565  S
Zr1303     O1309   2.419       .  S
Zr1303     O1310   2.384       .  S
Zr1303     O1311   2.351       .  S
Zr1303     O1312   2.418       .  S
Zr1304     O1323   2.463       .  S
Zr1304     O1316   2.424       .  S
Zr1304     O1317   2.303       .  S
Zr1304     O1310   2.416       .  S
Zr1304     O1311   2.324       .  S
Zr1305     O1307   2.435       .  S
Zr1305     O1329   2.437       .  S
Zr1305     O1331   2.685       .  S
Zr1305     O1309   2.377       .  S
Zr1305     O1312   2.390       .  S
Zr1306     O1332   2.434       .  S
Zr1306     O1333   2.413       .  S
Zr1306     O1308   2.444       .  S
Zr1306     O1309   2.359   1_545  S
Zr1306     O1310   2.324   1_545  S
O1307      H1344   0.990       .  S
O1308      H1339   0.990       .  S
O1308      H1353   0.986       .  S
O1310      H1336   0.955   1_565  S
O1311     Zr1321   2.338       .  S
O1312     Zr1321   2.380       .  S
O1312      H1337   0.965       .  S
C1313      C1459   1.444       .  S
C1314      C2469   1.530       .  S
C1315      C1513   1.532       .  S
O1316      H1352   0.988       .  S
O1317      C1319   1.244       .  A
O1318      C1319   1.275   1_545  A
C1319      C1583   1.495   1_565  S
O1320     Zr1321   2.436       .  S
O1320      H1349   0.990       .  S
Zr1321     O1324   2.437       .  S
Zr1321     O1325   2.440       .  S
Zr1321     O1326   2.448       .  S
O1322      C1327   1.291       .  A
O1323      H1340   0.983       .  S
O1323      H1355   0.991       .  S
O1324      H1341   0.990       .  S
O1325      H1345   0.990       .  S
O1325      H1354   0.990       .  S
O1326      C1327   1.288       .  A
O1328      H1347   0.989       .  S
O1328      H1351   0.986       .  S
O1329      H1343   0.990       .  S
O1329      H1350   0.990       .  S
O1330      C1334   1.278       .  A
O1331      C1334   1.334       .  A
O1332      H1342   0.990       .  S
O1333      H1346   0.991       .  S
C1334      C1664   1.573   1_564  S
Zr1357     O1358   2.433       .  S
Zr1357     O1359   2.473       .  S
Zr1357     O1360   2.675       .  S
Zr1357     O1363   2.441       .  S
Zr1357     O1366   2.455       .  S
Zr1357     O1367   2.351       .  S
Zr1357     O1368   2.467       .  S
Zr1357     O1365   2.244       .  S
O1358      H1414   0.990       .  S
O1358      H1422   0.990       .  S
O1359      C1379   1.287       .  A
O1360      C1381   1.335       .  A
O1361     Zr1371   2.571       .  S
O1361      C1380   1.317       .  A
O1362     Zr1370   2.314       .  S
O1362      C1381   1.242       .  A
O1363      C1380   1.293       .  A
O1364     Zr1372   2.368       .  S
O1364      C1379   1.258   1_565  A
O1365     Zr1370   2.294       .  S
O1365     Zr1372   2.337   1_545  S
O1366     Zr1371   2.418       .  S
O1366     Zr1372   2.282   1_545  S
O1366      H1401   0.959       .  S
O1367     Zr1370   2.398       .  S
O1367     Zr1387   2.396       .  S
O1367      H1404   0.965       .  S
O1368     Zr1371   2.452       .  S
O1368     Zr1387   2.389       .  S
Zr1369     O1394   2.424   1_545  S
Zr1369     O1388   2.443       .  S
Zr1369     O1396   2.428       .  S
Zr1369     O1384   2.474       .  S
Zr1369     O1375   2.422       .  S
Zr1369     O1376   2.406       .  S
Zr1369     O1377   2.349       .  S
Zr1369     O1378   2.427       .  S
Zr1370     O1389   2.469       .  S
Zr1370     O1382   2.419       .  S
Zr1370     O1383   2.304       .  S
Zr1370     O1376   2.443       .  S
Zr1370     O1377   2.323       .  S
Zr1371     O1373   2.434       .  S
Zr1371     O1395   2.436       .  S
Zr1371     O1397   2.653       .  S
Zr1371     O1375   2.385       .  S
Zr1371     O1378   2.404       .  S
Zr1372     O1398   2.438       .  S
Zr1372     O1399   2.427       .  S
Zr1372     O1374   2.440       .  S
Zr1372     O1375   2.353   1_565  S
Zr1372     O1376   2.320   1_565  S
O1373      H1410   0.990       .  S
O1374      H1405   0.991       .  S
O1374      H1419   0.984       .  S
O1376      H1402   0.962   1_545  S
O1377     Zr1387   2.348       .  S
O1378     Zr1387   2.379       .  S
O1378      H1403   0.965       .  S
C1380      C2389   1.523       .  S
C1381      C1645   1.527       .  S
O1382      H1418   0.986       .  S
O1383      C1385   1.244       .  A
O1384      C1385   1.276       .  A
C1385      C1715   1.510       .  S
O1386     Zr1387   2.436       .  S
O1386      H1415   0.990       .  S
Zr1387     O1390   2.438       .  S
Zr1387     O1391   2.440       .  S
Zr1387     O1392   2.441       .  S
O1388      C1393   1.287       .  A
O1389      H1406   0.986       .  S
O1389      H1421   0.991       .  S
O1390      H1407   0.990       .  S
O1391      H1411   0.990       .  S
O1391      H1420   0.990       .  S
O1392      C1393   1.286       .  A
C1393      C1445   1.440       .  S
O1394      H1413   0.986       .  S
O1394      H1417   0.988   1_565  S
O1395      H1409   0.990       .  S
O1395      H1416   0.990       .  S
O1396      C1400   1.274       .  A
O1397      C1400   1.324       .  A
O1398      H1408   0.990       .  S
O1399      H1412   0.990       .  S
C1400      C1532   1.565   1_545  S
Zr1423     O1424   2.433       .  S
Zr1423     O1425   2.467       .  S
Zr1423     O1426   2.673       .  S
Zr1423     O1429   2.432       .  S
Zr1423     O1432   2.458       .  S
Zr1423     O1433   2.346       .  S
Zr1423     O1434   2.465       .  S
Zr1423     O1431   2.245       .  S
O1424      H1480   0.990       .  S
O1424      H1488   0.990       .  S
O1425      C1445   1.286       .  A
O1426      C1447   1.335       .  A
O1427     Zr1437   2.575       .  S
O1427      C1446   1.317       .  A
O1428     Zr1436   2.308       .  S
O1428      C1447   1.241       .  A
O1429      C1446   1.291       .  A
O1430     Zr1438   2.380       .  S
O1430      C1445   1.256       .  A
O1431     Zr1436   2.295       .  S
O1431     Zr1438   2.329       .  S
O1432     Zr1437   2.417       .  S
O1432     Zr1438   2.282       .  S
O1432      H1467   0.959       .  S
O1433     Zr1436   2.403       .  S
O1433     Zr1453   2.393       .  S
O1433      H1470   0.966       .  S
O1434     Zr1437   2.450       .  S
O1434     Zr1453   2.394       .  S
Zr1435     O1460   2.420       .  S
Zr1435     O1454   2.446       .  S
Zr1435     O1462   2.428       .  S
Zr1435     O1450   2.465       .  S
Zr1435     O1441   2.428       .  S
Zr1435     O1442   2.403       .  S
Zr1435     O1443   2.349       .  S
Zr1435     O1444   2.418       .  S
Zr1436     O1455   2.466   1_545  S
Zr1436     O1448   2.429       .  S
Zr1436     O1449   2.307       .  S
Zr1436     O1442   2.426       .  S
Zr1436     O1443   2.329       .  S
Zr1437     O1439   2.435       .  S
Zr1437     O1461   2.436       .  S
Zr1437     O1463   2.645       .  S
Zr1437     O1441   2.398       .  S
Zr1437     O1444   2.407       .  S
Zr1438     O1464   2.434       .  S
Zr1438     O1465   2.418       .  S
Zr1438     O1440   2.446       .  S
Zr1438     O1441   2.357       .  S
Zr1438     O1442   2.317       .  S
O1439      H1476   0.990       .  S
O1440      H1471   0.991       .  S
O1440      H1485   0.987       .  S
O1442      H1468   0.958       .  S
O1443     Zr1453   2.347       .  S
O1444     Zr1453   2.383       .  S
O1444      H1469   0.965       .  S
C1446      C2506   1.522       .  S
C1447      C1711   1.522   1_545  S
O1448      H1484   0.988       .  S
O1449      C1451   1.244       .  A
O1450      C1451   1.276       .  A
C1451      C1517   1.502   1_545  S
O1452     Zr1453   2.437       .  S
O1452      H1481   0.990       .  S
Zr1453     O1456   2.437       .  S
Zr1453     O1457   2.441       .  S
Zr1453     O1458   2.441       .  S
O1454      C1459   1.286       .  A
O1455      H1472   0.984       .  S
O1455      H1487   0.991       .  S
O1456      H1473   0.990       .  S
O1457      H1477   0.990       .  S
O1457      H1486   0.990       .  S
O1458      C1459   1.285       .  A
O1460      H1479   0.984       .  S
O1460      H1483   0.987       .  S
O1461      H1475   0.990       .  S
O1461      H1482   0.990       .  S
O1462      C1466   1.275       .  A
O1463      C1466   1.322       .  A
O1464      H1474   0.990       .  S
O1465      H1478   0.990       .  S
C1466      C1598   1.564       .  S
Zr1489     O1490   2.433       .  S
Zr1489     O1491   2.474       .  S
Zr1489     O1492   2.674       .  S
Zr1489     O1495   2.437       .  S
Zr1489     O1498   2.459       .  S
Zr1489     O1499   2.348       .  S
Zr1489     O1500   2.471       .  S
Zr1489     O1497   2.240       .  S
O1490      H1546   0.990       .  S
O1490      H1554   0.990       .  S
O1491      C1511   1.285   1_565  A
O1492      C1513   1.334       .  A
O1493     Zr1503   2.577       .  S
O1493      C1512   1.318       .  A
O1494     Zr1502   2.319       .  S
O1494      C1513   1.242       .  A
O1495      C1512   1.292       .  A
O1496     Zr1504   2.369       .  S
O1496      C1511   1.256       .  A
O1497     Zr1502   2.292       .  S
O1497     Zr1504   2.336   1_565  S
O1498     Zr1503   2.418       .  S
O1498     Zr1504   2.294   1_565  S
O1498      H1533   0.958       .  S
O1499     Zr1502   2.399       .  S
O1499     Zr1519   2.398       .  S
O1499      H1536   0.965       .  S
O1500     Zr1503   2.453       .  S
O1500     Zr1519   2.385       .  S
Zr1501     O1526   2.442   1_565  S
Zr1501     O1520   2.453       .  S
Zr1501     O1528   2.417       .  S
Zr1501     O1516   2.460   1_565  S
Zr1501     O1507   2.416   1_565  S
Zr1501     O1508   2.395       .  S
Zr1501     O1509   2.350       .  S
Zr1501     O1510   2.426       .  S
Zr1502     O1521   2.470       .  S
Zr1502     O1514   2.416       .  S
Zr1502     O1515   2.300       .  S
Zr1502     O1508   2.447       .  S
Zr1502     O1509   2.319       .  S
Zr1503     O1505   2.434       .  S
Zr1503     O1527   2.437       .  S
Zr1503     O1529   2.673       .  S
Zr1503     O1507   2.373   1_565  S
Zr1503     O1510   2.389       .  S
Zr1504     O1530   2.442       .  S
Zr1504     O1531   2.441       .  S
Zr1504     O1506   2.436       .  S
Zr1504     O1507   2.360       .  S
Zr1504     O1508   2.346   1_545  S
O1505      H1542   0.990       .  S
O1506      H1537   0.990       .  S
O1506      H1551   0.985       .  S
O1508      H1534   0.960   1_565  S
O1509     Zr1519   2.344       .  S
O1510     Zr1519   2.377       .  S
O1510      H1535   0.965       .  S
C1511      C1591   1.445       .  S
C1512      C2409   1.525       .  S
O1514      H1550   0.985       .  S
O1515      C1517   1.243       .  A
O1516      C1517   1.273   1_545  A
O1518     Zr1519   2.436       .  S
O1518      H1547   0.990       .  S
Zr1519     O1522   2.435       .  S
Zr1519     O1523   2.441       .  S
Zr1519     O1524   2.440       .  S
O1520      C1525   1.291       .  A
O1521      H1538   0.984       .  S
O1521      H1553   0.991       .  S
O1522      H1539   0.990       .  S
O1523      H1543   0.990       .  S
O1523      H1552   0.990       .  S
O1524      C1525   1.287       .  A
C1525      C1709   1.446       .  S
O1526      H1545   0.988       .  S
O1526      H1549   0.988       .  S
O1527      H1541   0.990       .  S
O1527      H1548   0.990       .  S
O1528      C1532   1.275       .  A
O1529      C1532   1.330       .  A
O1530      H1540   0.990       .  S
O1531      H1544   0.990       .  S
Zr1555     O1556   2.433   1_554  S
Zr1555     O1557   2.480   1_554  S
Zr1555     O1558   2.684       .  S
Zr1555     O1561   2.434       .  S
Zr1555     O1564   2.454       .  S
Zr1555     O1565   2.335       .  S
Zr1555     O1566   2.469       .  S
Zr1555     O1563   2.237       .  S
O1556      H1612   0.990       .  S
O1556      H1620   0.990   1_556  S
O1557      C1577   1.289       .  A
O1558      C1579   1.337       .  A
O1559     Zr1569   2.576       .  S
O1559      C1578   1.318       .  A
O1560     Zr1568   2.308       .  S
O1560      C1579   1.244       .  A
O1561      C1578   1.291       .  A
O1562     Zr1570   2.380       .  S
O1562      C1577   1.258   1_554  A
O1563     Zr1568   2.284       .  S
O1563     Zr1570   2.328       .  S
O1564     Zr1569   2.430       .  S
O1564     Zr1570   2.284       .  S
O1564      H1599   0.958       .  S
O1565     Zr1568   2.400       .  S
O1565     Zr1585   2.389       .  S
O1565      H1602   0.965       .  S
O1566     Zr1569   2.449       .  S
O1566     Zr1585   2.381       .  S
Zr1567     O1592   2.437       .  S
Zr1567     O1586   2.456       .  S
Zr1567     O1594   2.415       .  S
Zr1567     O1582   2.454       .  S
Zr1567     O1573   2.412       .  S
Zr1567     O1574   2.402       .  S
Zr1567     O1575   2.351       .  S
Zr1567     O1576   2.425       .  S
Zr1568     O1587   2.466   1_545  S
Zr1568     O1580   2.423       .  S
Zr1568     O1581   2.299       .  S
Zr1568     O1574   2.440       .  S
Zr1568     O1575   2.322       .  S
Zr1569     O1571   2.435       .  S
Zr1569     O1593   2.437       .  S
Zr1569     O1595   2.671       .  S
Zr1569     O1573   2.381       .  S
Zr1569     O1576   2.387       .  S
Zr1570     O1596   2.438       .  S
Zr1570     O1597   2.427       .  S
Zr1570     O1572   2.435       .  S
Zr1570     O1573   2.354       .  S
Zr1570     O1574   2.361       .  S
O1571      H1608   0.990       .  S
O1572      H1603   0.991       .  S
O1572      H1617   0.984       .  S
O1574      H1600   0.961       .  S
O1575     Zr1585   2.350       .  S
O1576     Zr1585   2.375       .  S
O1576      H1601   0.965       .  S
C1577      C1657   1.450       .  S
C1578      C2529   1.522       .  S
O1580      H1616   0.989       .  S
O1581      C1583   1.239       .  A
O1582      C1583   1.271       .  A
O1584     Zr1585   2.437       .  S
O1584      H1613   0.990       .  S
Zr1585     O1588   2.436       .  S
Zr1585     O1589   2.441       .  S
Zr1585     O1590   2.430       .  S
O1586      C1591   1.292       .  A
O1587      H1604   0.985       .  S
O1587      H1619   0.990       .  S
O1588      H1605   0.990       .  S
O1589      H1609   0.990       .  S
O1589      H1618   0.990       .  S
O1590      C1591   1.285       .  A
O1592      H1611   0.989       .  S
O1592      H1615   0.987       .  S
O1593      H1607   0.990       .  S
O1593      H1614   0.990       .  S
O1594      C1598   1.276       .  A
O1595      C1598   1.331       .  A
O1596      H1606   0.990       .  S
O1597      H1610   0.990       .  S
Zr1621     O1622   2.434       .  S
Zr1621     O1623   2.477       .  S
Zr1621     O1624   2.675       .  S
Zr1621     O1627   2.438       .  S
Zr1621     O1630   2.462       .  S
Zr1621     O1631   2.351       .  S
Zr1621     O1632   2.468       .  S
Zr1621     O1629   2.244       .  S
O1622      H1678   0.990       .  S
O1622      H1686   0.990       .  S
O1623      C1643   1.288       .  A
O1624      C1645   1.335       .  A
O1625     Zr1635   2.592       .  S
O1625      C1644   1.321       .  A
O1626     Zr1634   2.311       .  S
O1626      C1645   1.242       .  A
O1627      C1644   1.292       .  A
O1628     Zr1636   2.380       .  S
O1628      C1643   1.257   1_565  A
O1629     Zr1634   2.294       .  S
O1629     Zr1636   2.330   1_545  S
O1630     Zr1635   2.417       .  S
O1630     Zr1636   2.287   1_545  S
O1630      H1665   0.960       .  S
O1631     Zr1634   2.401       .  S
O1631     Zr1651   2.397       .  S
O1631      H1668   0.965       .  S
O1632     Zr1635   2.452       .  S
O1632     Zr1651   2.391       .  S
Zr1633     O1658   2.420       .  S
Zr1633     O1652   2.456       .  S
Zr1633     O1660   2.428       .  S
Zr1633     O1648   2.468       .  S
Zr1633     O1639   2.432       .  S
Zr1633     O1640   2.407       .  S
Zr1633     O1641   2.348       .  S
Zr1633     O1642   2.420       .  S
Zr1634     O1653   2.465       .  S
Zr1634     O1646   2.429       .  S
Zr1634     O1647   2.310       .  S
Zr1634     O1640   2.425       .  S
Zr1634     O1641   2.331       .  S
Zr1635     O1637   2.436       .  S
Zr1635     O1659   2.437       .  S
Zr1635     O1661   2.659       .  S
Zr1635     O1639   2.396       .  S
Zr1635     O1642   2.408       .  S
Zr1636     O1662   2.434       .  S
Zr1636     O1663   2.419       .  S
Zr1636     O1638   2.445       .  S
Zr1636     O1639   2.357   1_565  S
Zr1636     O1640   2.322   1_565  S
O1637      H1674   0.990       .  S
O1638      H1669   0.990       .  S
O1638      H1683   0.986       .  S
O1640      H1666   0.960   1_545  S
O1641     Zr1651   2.352       .  S
O1642     Zr1651   2.383       .  S
O1642      H1667   0.965       .  S
C1643      C1723   1.449   1_545  S
C1644      C2449   1.529       .  S
O1646      H1682   0.988       .  S
O1647      C1649   1.245       .  A
O1648      C1649   1.278       .  A
O1650     Zr1651   2.438       .  S
O1650      H1679   0.990       .  S
Zr1651     O1654   2.436       .  S
Zr1651     O1655   2.442       .  S
Zr1651     O1656   2.439       .  S
O1652      C1657   1.288       .  A
O1653      H1670   0.984       .  S
O1653      H1685   0.991       .  S
O1654      H1671   0.990       .  S
O1655      H1675   0.990       .  S
O1655      H1684   0.990       .  S
O1656      C1657   1.285       .  A
O1658      H1677   0.984   1_545  S
O1658      H1681   0.986   1_556  S
O1659      H1673   0.990       .  S
O1659      H1680   0.990       .  S
O1660      C1664   1.277       .  A
O1661      C1664   1.326       .  A
O1662      H1672   0.990       .  S
O1663      H1676   0.990       .  S
Zr1687     O1688   2.433       .  S
Zr1687     O1689   2.480       .  S
Zr1687     O1690   2.669       .  S
Zr1687     O1693   2.439       .  S
Zr1687     O1696   2.454       .  S
Zr1687     O1697   2.352       .  S
Zr1687     O1698   2.466       .  S
Zr1687     O1695   2.242       .  S
O1688      H1744   0.990       .  S
O1688      H1752   0.990       .  S
O1689      C1709   1.289       .  A
O1690      C1711   1.334       .  A
O1691     Zr1701   2.575       .  S
O1691      C1710   1.317       .  A
O1692     Zr1700   2.311       .  S
O1692      C1711   1.242       .  A
O1693      C1710   1.293       .  A
O1694     Zr1702   2.368       .  S
O1694      C1709   1.259       .  A
O1695     Zr1700   2.293       .  S
O1695     Zr1702   2.335       .  S
O1696     Zr1701   2.414       .  S
O1696     Zr1702   2.284       .  S
O1696      H1731   0.960       .  S
O1697     Zr1700   2.397       .  S
O1697     Zr1717   2.394       .  S
O1697      H1734   0.965       .  S
O1698     Zr1701   2.447       .  S
O1698     Zr1717   2.394       .  S
Zr1699     O1724   2.422       .  S
Zr1699     O1718   2.455       .  S
Zr1699     O1726   2.429       .  S
Zr1699     O1714   2.475       .  S
Zr1699     O1705   2.426       .  S
Zr1699     O1706   2.404       .  S
Zr1699     O1707   2.348       .  S
Zr1699     O1708   2.426       .  S
Zr1700     O1719   2.467   1_565  S
Zr1700     O1712   2.418       .  S
Zr1700     O1713   2.304   1_565  S
Zr1700     O1706   2.434       .  S
Zr1700     O1707   2.323       .  S
Zr1701     O1703   2.436       .  S
Zr1701     O1725   2.437       .  S
Zr1701     O1727   2.645       .  S
Zr1701     O1705   2.386       .  S
Zr1701     O1708   2.407       .  S
Zr1702     O1728   2.437       .  S
Zr1702     O1729   2.423       .  S
Zr1702     O1704   2.441       .  S
Zr1702     O1705   2.351       .  S
Zr1702     O1706   2.312       .  S
O1703      H1740   0.990       .  S
O1704      H1735   0.991       .  S
O1704      H1749   0.985       .  S
O1706      H1732   0.963       .  S
O1707     Zr1717   2.347       .  S
O1708     Zr1717   2.379       .  S
O1708      H1733   0.965       .  S
C1710      C2366   1.525       .  S
O1712      H1748   0.986       .  S
O1713      C1715   1.244       .  A
O1714      C1715   1.277   1_565  A
O1716     Zr1717   2.436       .  S
O1716      H1745   0.990       .  S
Zr1717     O1720   2.437       .  S
Zr1717     O1721   2.440       .  S
Zr1717     O1722   2.449       .  S
O1718      C1723   1.289       .  A
O1719      H1736   0.986       .  S
O1719      H1751   0.991       .  S
O1720      H1737   0.990       .  S
O1721      H1741   0.990       .  S
O1721      H1750   0.990       .  S
O1722      C1723   1.287       .  A
O1724      H1743   0.986       .  S
O1724      H1747   0.988       .  S
O1725      H1739   0.990       .  S
O1725      H1746   0.990       .  S
O1726      C1730   1.274       .  A
O1727      C1730   1.322       .  A
O1728      H1738   0.990       .  S
O1729      H1742   0.990       .  S
Zr1753     O1754   2.436       .  S
Zr1753     O1755   2.494       .  S
Zr1753     O1756   2.421       .  S
Zr1753     O1759   2.589       .  S
Zr1753     O1761   2.430       .  S
Zr1753     O1762   2.388       .  S
Zr1753     O1763   2.483       .  S
Zr1753     O1764   2.407       .  S
O1754      H1810   0.990       .  S
O1754      H1818   0.990       .  S
O1755      C1775   1.289       .  A
O1756      C1777   1.286       .  A
O1757     Zr1767   2.352       .  S
O1757      C1776   1.256       .  A
O1758     Zr1766   2.545       .  S
O1758      C1777   1.310       .  A
O1759      C1776   1.314       .  A
O1760     Zr1768   2.355       .  S
O1760      C1775   1.254       .  A
O1761     Zr1766   2.419       .  S
O1761     Zr1768   2.300       .  S
O1762     Zr1767   2.374       .  S
O1762     Zr1768   2.420       .  S
O1762      H1797   0.964       .  S
O1763     Zr1766   2.459       .  S
O1763     Zr1783   2.430       .  S
O1763      H1800   0.966       .  S
O1764     Zr1767   2.356       .  S
O1764     Zr1783   2.438       .  S
Zr1765     O1790   2.446       .  S
Zr1765     O1784   2.433       .  S
Zr1765     O1792   2.379       .  S
Zr1765     O1780   2.430       .  S
Zr1765     O1772   2.386       .  S
Zr1765     O1773   2.372       .  S
Zr1765     O1774   2.427       .  S
Zr1765     O1771   2.265       .  S
Zr1766     O1785   2.433       .  S
Zr1766     O1778   2.435       .  S
Zr1766     O1779   2.639       .  S
Zr1766     O1772   2.381       .  S
Zr1766     O1773   2.404       .  S
Zr1767     O1769   2.442       .  S
Zr1767     O1791   2.436       .  S
Zr1767     O1793   2.297       .  S
Zr1767     O1774   2.303       .  S
Zr1767     O1771   2.319       .  S
Zr1768     O1794   2.413       .  S
Zr1768     O1795   2.406       .  S
Zr1768     O1770   2.444       .  S
Zr1768     O1772   2.348       .  S
Zr1768     O1771   2.290       .  S
O1769      H1806   0.990       .  S
O1770      H1801   0.990       .  S
O1770      H1815   0.990       .  S
O1772      H1798   0.964       .  S
O1773     Zr1783   2.402       .  S
O1774     Zr1783   2.356       .  S
O1774      H1799   0.962       .  S
C1775      C1921   1.467       .  S
C1776      C2106   1.523       .  S
C1777      C2669   1.513       .  S
O1778      H1814   0.990       .  S
O1779      C1781   1.320       .  A
O1780      C1781   1.279       .  A
C1781      C2243   1.559       .  S
O1782     Zr1783   2.434       .  S
O1782      H1811   0.990       .  S
Zr1783     O1786   2.434       .  S
Zr1783     O1787   2.437       .  S
Zr1783     O1788   2.506       .  S
O1784      C1789   1.290       .  A
O1785      H1802   0.990       .  S
O1785      H1817   0.990       .  S
O1786      H1803   0.990       .  S
O1787      H1807   0.990       .  S
O1787      H1816   0.990       .  S
O1788      C1789   1.298       .  A
C1789      C1841   1.464       .  S
O1790      H1809   0.988       .  S
O1790      H1813   0.984       .  S
O1791      H1805   0.989       .  S
O1791      H1812   0.977       .  S
O1792      C1796   1.250       .  A
O1793      C1796   1.247       .  A
O1794      H1804   0.990       .  S
O1795      H1808   0.990       .  S
C1796      C2192   1.421       .  S
Zr1819     O1820   2.436       .  S
Zr1819     O1821   2.482       .  S
Zr1819     O1822   2.427       .  S
Zr1819     O1825   2.614       .  S
Zr1819     O1828   2.387       .  S
Zr1819     O1829   2.476       .  S
Zr1819     O1830   2.394       .  S
Zr1819     O1827   2.329       .  S
O1820      H1876   0.990       .  S
O1820      H1884   0.990       .  S
O1821      C1841   1.289       .  A
O1822      C1843   1.288       .  A
O1823     Zr1833   2.351       .  S
O1823      C1842   1.256       .  A
O1824     Zr1832   2.532       .  S
O1824      C1843   1.308       .  A
O1825      C1842   1.321       .  A
O1826     Zr1834   2.359       .  S
O1826      C1841   1.252       .  A
O1827     Zr1832   2.315       .  S
O1827     Zr1834   2.206       .  S
O1828     Zr1833   2.385       .  S
O1828     Zr1834   2.432       .  S
O1828      H1863   0.964       .  S
O1829     Zr1832   2.464       .  S
O1829     Zr1849   2.415       .  S
O1829      H1866   0.966       .  S
O1830     Zr1833   2.367       .  S
O1830     Zr1849   2.425       .  S
Zr1831     O1856   2.430       .  S
Zr1831     O1850   2.469       .  S
Zr1831     O1858   2.441       .  S
Zr1831     O1846   2.447       .  S
Zr1831     O1838   2.389       .  S
Zr1831     O1839   2.379       .  S
Zr1831     O1840   2.420       .  S
Zr1831     O1837   2.262       .  S
Zr1832     O1851   2.432       .  S
Zr1832     O1844   2.436       .  S
Zr1832     O1845   2.636       .  S
Zr1832     O1838   2.395       .  S
Zr1832     O1839   2.407       .  S
Zr1833     O1835   2.443       .  S
Zr1833     O1857   2.430       .  S
Zr1833     O1859   2.310       .  S
Zr1833     O1840   2.309       .  S
Zr1833     O1837   2.294       .  S
Zr1834     O1860   2.403       .  S
Zr1834     O1861   2.424       .  S
Zr1834     O1836   2.451       .  S
Zr1834     O1838   2.349       .  S
Zr1834     O1837   2.299       .  S
O1835      H1872   0.990       .  S
O1836      H1867   0.991       .  S
O1836      H1881   0.990       .  S
O1838      H1864   0.963       .  S
O1839     Zr1849   2.412       .  S
O1840     Zr1849   2.382       .  S
O1840      H1865   0.962       .  S
C1842      C2172   1.530       .  S
C1843      C2356   1.509       .  S
O1844      H1880   0.990       .  S
O1845      C1847   1.318       .  A
O1846      C1847   1.278       .  A
C1847      C2045   1.565       .  S
O1848     Zr1849   2.434       .  S
O1848      H1877   0.990       .  S
Zr1849     O1852   2.433       .  S
Zr1849     O1853   2.439       .  S
Zr1849     O1854   2.450       .  S
O1850      C1855   1.295       .  A
O1851      H1868   0.990       .  S
O1851      H1883   0.990       .  S
O1852      H1869   0.990       .  S
O1853      H1873   0.990       .  S
O1853      H1882   0.990       .  S
O1854      C1855   1.285       .  A
C1855      C1973   1.461       .  S
O1856      H1875   0.983       .  S
O1856      H1879   0.986       .  S
O1857      H1871   0.990       .  S
O1857      H1878   0.974       .  S
O1858      C1862   1.257       .  A
O1859      C1862   1.249       .  A
O1860      H1870   0.990       .  S
O1861      H1874   0.989       .  S
C1862      C2258   1.443       .  S
Zr1885     O1886   2.435   1_554  S
Zr1885     O1887   2.485   1_554  S
Zr1885     O1888   2.420       .  S
Zr1885     O1891   2.598       .  S
Zr1885     O1894   2.397       .  S
Zr1885     O1895   2.482       .  S
Zr1885     O1896   2.393       .  S
Zr1885     O1893   2.329       .  S
O1886      H1942   0.990       .  S
O1886      H1950   0.990   1_556  S
O1887      C1907   1.286   1_556  A
O1888      C1909   1.286       .  A
O1889     Zr1899   2.344       .  S
O1889      C1908   1.253       .  A
O1890     Zr1898   2.551       .  S
O1890      C1909   1.312       .  A
O1891      C1908   1.316       .  A
O1892     Zr1900   2.354       .  S
O1892      C1907   1.253       .  A
O1893     Zr1898   2.312       .  S
O1893     Zr1900   2.203       .  S
O1894     Zr1899   2.384       .  S
O1894     Zr1900   2.435       .  S
O1894      H1929   0.965       .  S
O1895     Zr1898   2.463       .  S
O1895     Zr1915   2.431       .  S
O1895      H1932   0.966       .  S
O1896     Zr1899   2.358       .  S
O1896     Zr1915   2.429       .  S
Zr1897     O1922   2.450       .  S
Zr1897     O1916   2.465       .  S
Zr1897     O1924   2.404       .  S
Zr1897     O1912   2.425       .  S
Zr1897     O1904   2.395       .  S
Zr1897     O1905   2.377       .  S
Zr1897     O1906   2.413       .  S
Zr1897     O1903   2.252       .  S
Zr1898     O1917   2.431       .  S
Zr1898     O1910   2.437       .  S
Zr1898     O1911   2.641       .  S
Zr1898     O1904   2.395       .  S
Zr1898     O1905   2.403       .  S
Zr1899     O1901   2.446       .  S
Zr1899     O1923   2.434       .  S
Zr1899     O1925   2.295       .  S
Zr1899     O1906   2.301       .  S
Zr1899     O1903   2.307       .  S
Zr1900     O1926   2.398       .  S
Zr1900     O1927   2.420       .  S
Zr1900     O1902   2.444       .  S
Zr1900     O1904   2.341       .  S
Zr1900     O1903   2.294       .  S
O1901      H1938   0.990       .  S
O1902      H1933   0.990       .  S
O1902      H1947   0.989       .  S
O1904      H1930   0.965       .  S
O1905     Zr1915   2.397       .  S
O1906     Zr1915   2.370       .  S
O1906      H1931   0.962       .  S
C1907      C1987   1.466   1_554  S
C1908      C2040   1.522   1_554  S
C1909      C2566   1.521       .  S
O1910      H1946   0.990       .  S
O1911      C1913   1.317       .  A
O1912      C1913   1.273       .  A
C1913      C2177   1.560       .  S
O1914     Zr1915   2.432       .  S
O1914      H1943   0.990       .  S
Zr1915     O1918   2.433       .  S
Zr1915     O1919   2.436       .  S
Zr1915     O1920   2.486       .  S
O1916      C1921   1.295       .  A
O1917      H1934   0.990       .  S
O1917      H1949   0.990       .  S
O1918      H1935   0.990       .  S
O1919      H1939   0.990       .  S
O1919      H1948   0.990       .  S
O1920      C1921   1.294       .  A
O1922      H1941   0.989       .  S
O1922      H1945   0.988       .  S
O1923      H1937   0.989       .  S
O1923      H1944   0.975       .  S
O1924      C1928   1.252       .  A
O1925      C1928   1.246       .  A
O1926      H1936   0.991       .  S
O1927      H1940   0.990       .  S
C1928      C2126   1.426       .  S
Zr1951     O1952   2.438       .  S
Zr1951     O1953   2.447       .  S
Zr1951     O1954   2.433       .  S
Zr1951     O1957   2.617       .  S
Zr1951     O1959   2.440       .  S
Zr1951     O1960   2.396       .  S
Zr1951     O1961   2.464       .  S
Zr1951     O1962   2.362       .  S
O1952      H2008   0.990       .  S
O1952      H2016   0.990       .  S
O1953      C1973   1.281       .  A
O1954      C1975   1.287       .  A
O1955     Zr1965   2.350       .  S
O1955      C1974   1.254       .  A
O1956     Zr1964   2.551       .  S
O1956      C1975   1.310       .  A
O1957      C1974   1.321       .  A
O1958     Zr1966   2.383       .  S
O1958      C1973   1.260       .  A
O1959     Zr1964   2.406       .  S
O1959     Zr1966   2.305       .  S
O1960     Zr1965   2.379       .  S
O1960     Zr1966   2.433       .  S
O1960      H1995   0.961       .  S
O1961     Zr1964   2.461       .  S
O1961     Zr1981   2.398       .  S
O1961      H1998   0.966       .  S
O1962     Zr1965   2.391       .  S
O1962     Zr1981   2.417       .  S
Zr1963     O1988   2.424   1_556  S
Zr1963     O1982   2.485       .  S
Zr1963     O1990   2.416       .  S
Zr1963     O1978   2.457       .  S
Zr1963     O1970   2.417       .  S
Zr1963     O1971   2.391       .  S
Zr1963     O1972   2.411       .  S
Zr1963     O1969   2.310       .  S
Zr1964     O1983   2.436       .  S
Zr1964     O1976   2.438       .  S
Zr1964     O1977   2.622       .  S
Zr1964     O1970   2.416       .  S
Zr1964     O1971   2.415       .  S
Zr1965     O1967   2.446       .  S
Zr1965     O1989   2.443       .  S
Zr1965     O1991   2.353       .  S
Zr1965     O1972   2.301       .  S
Zr1965     O1969   2.318       .  S
Zr1966     O1992   2.423       .  S
Zr1966     O1993   2.443       .  S
Zr1966     O1968   2.447       .  S
Zr1966     O1970   2.361       .  S
Zr1966     O1969   2.301       .  S
O1967      H2004   0.989       .  S
O1968      H1999   0.990       .  S
O1968      H2013   0.988       .  S
O1970      H1996   0.963       .  S
O1971     Zr1981   2.391       .  S
O1972     Zr1981   2.356       .  S
O1972      H1997   0.965       .  S
C1974      C2238   1.528       .  S
C1975      C2589   1.516       .  S
O1976      H2012   0.990       .  S
O1977      C1979   1.311       .  A
O1978      C1979   1.277       .  A
C1979      C2111   1.570   1_556  S
O1980     Zr1981   2.438       .  S
O1980      H2009   0.990       .  S
Zr1981     O1984   2.435       .  S
Zr1981     O1985   2.435       .  S
Zr1981     O1986   2.452       .  S
O1982      C1987   1.296       .  A
O1983      H2000   0.990       .  S
O1983      H2015   0.990       .  S
O1984      H2001   0.990       .  S
O1985      H2005   0.990       .  S
O1985      H2014   0.990       .  S
O1986      C1987   1.287       .  A
O1988      H2007   0.988       .  S
O1988      H2011   0.980       .  S
O1989      H2003   0.986       .  S
O1989      H2010   0.979       .  S
O1990      C1994   1.259       .  A
O1991      C1994   1.241       .  A
O1992      H2002   0.991       .  S
O1993      H2006   0.989       .  S
C1994      C2060   1.425       .  S
Zr2017     O2018   2.435   1_556  S
Zr2017     O2019   2.489   1_556  S
Zr2017     O2020   2.425       .  S
Zr2017     O2023   2.588   1_556  S
Zr2017     O2025   2.431       .  S
Zr2017     O2026   2.404       .  S
Zr2017     O2027   2.481       .  S
Zr2017     O2028   2.400       .  S
O2018      H2074   0.990       .  S
O2018      H2082   0.990       .  S
O2019      C2039   1.288       .  A
O2020      C2041   1.288       .  A
O2021     Zr2031   2.346       .  S
O2021      C2040   1.255       .  A
O2022     Zr2030   2.550       .  S
O2022      C2041   1.312       .  A
O2023      C2040   1.315   1_554  A
O2024     Zr2032   2.351       .  S
O2024      C2039   1.253   1_556  A
O2025     Zr2030   2.418       .  S
O2025     Zr2032   2.296       .  S
O2026     Zr2031   2.376       .  S
O2026     Zr2032   2.430       .  S
O2026      H2061   0.964       .  S
O2027     Zr2030   2.462       .  S
O2027     Zr2047   2.422       .  S
O2027      H2064   0.966       .  S
O2028     Zr2031   2.357       .  S
O2028     Zr2047   2.433       .  S
Zr2029     O2054   2.439       .  S
Zr2029     O2048   2.437       .  S
Zr2029     O2056   2.390       .  S
Zr2029     O2044   2.428       .  S
Zr2029     O2036   2.385       .  S
Zr2029     O2037   2.369       .  S
Zr2029     O2038   2.426       .  S
Zr2029     O2035   2.264       .  S
Zr2030     O2049   2.433       .  S
Zr2030     O2042   2.434       .  S
Zr2030     O2043   2.649       .  S
Zr2030     O2036   2.382       .  S
Zr2030     O2037   2.398       .  S
Zr2031     O2033   2.445       .  S
Zr2031     O2055   2.444       .  S
Zr2031     O2057   2.289       .  S
Zr2031     O2038   2.296       .  S
Zr2031     O2035   2.319       .  S
Zr2032     O2058   2.420       .  S
Zr2032     O2059   2.413       .  S
Zr2032     O2034   2.445       .  S
Zr2032     O2036   2.348       .  S
Zr2032     O2035   2.291       .  S
O2033      H2070   0.990       .  S
O2034      H2065   0.990       .  S
O2034      H2079   0.990       .  S
O2036      H2062   0.964       .  S
O2037     Zr2047   2.396       .  S
O2038     Zr2047   2.362       .  S
O2038      H2063   0.960       .  S
C2039      C2119   1.462       .  S
C2041      C2349   1.509   1_556  S
O2042      H2078   0.990       .  S
O2043      C2045   1.322       .  A
O2044      C2045   1.278       .  A
O2046     Zr2047   2.437       .  S
O2046      H2075   0.990       .  S
Zr2047     O2050   2.434       .  S
Zr2047     O2051   2.439       .  S
Zr2047     O2052   2.485       .  S
O2048      C2053   1.292       .  A
O2049      H2066   0.990       .  S
O2049      H2081   0.990       .  S
O2050      H2067   0.990       .  S
O2051      H2071   0.990       .  S
O2051      H2080   0.990       .  S
O2052      C2053   1.294       .  A
C2053      C2237   1.454       .  S
O2054      H2073   0.989       .  S
O2054      H2077   0.985       .  S
O2055      H2069   0.989       .  S
O2055      H2076   0.985       .  S
O2056      C2060   1.249       .  A
O2057      C2060   1.246       .  A
O2058      H2068   0.990       .  S
O2059      H2072   0.990       .  S
Zr2083     O2084   2.437       .  S
Zr2083     O2085   2.463       .  S
Zr2083     O2086   2.432       .  S
Zr2083     O2089   2.603       .  S
Zr2083     O2091   2.430       .  S
Zr2083     O2092   2.402       .  S
Zr2083     O2093   2.474       .  S
Zr2083     O2094   2.366       .  S
O2084      H2140   0.990       .  S
O2084      H2148   0.990       .  S
O2085      C2105   1.283       .  A
O2086      C2107   1.289       .  A
O2087     Zr2097   2.363       .  S
O2087      C2106   1.258       .  A
O2088     Zr2096   2.549       .  S
O2088      C2107   1.312       .  A
O2089      C2106   1.319       .  A
O2090     Zr2098   2.371       .  S
O2090      C2105   1.256       .  A
O2091     Zr2096   2.412       .  S
O2091     Zr2098   2.310       .  S
O2092     Zr2097   2.375       .  S
O2092     Zr2098   2.435       .  S
O2092      H2127   0.961       .  S
O2093     Zr2096   2.463       .  S
O2093     Zr2113   2.395       .  S
O2093      H2130   0.966       .  S
O2094     Zr2097   2.389       .  S
O2094     Zr2113   2.413       .  S
Zr2095     O2120   2.431       .  S
Zr2095     O2114   2.482       .  S
Zr2095     O2122   2.425       .  S
Zr2095     O2110   2.415       .  S
Zr2095     O2102   2.418       .  S
Zr2095     O2103   2.393       .  S
Zr2095     O2104   2.436       .  S
Zr2095     O2101   2.302       .  S
Zr2096     O2115   2.435       .  S
Zr2096     O2108   2.434       .  S
Zr2096     O2109   2.673       .  S
Zr2096     O2102   2.363       .  S
Zr2096     O2103   2.384       .  S
Zr2097     O2099   2.446       .  S
Zr2097     O2121   2.439       .  S
Zr2097     O2123   2.358       .  S
Zr2097     O2104   2.307       .  S
Zr2097     O2101   2.306       .  S
Zr2098     O2124   2.431       .  S
Zr2098     O2125   2.435       .  S
Zr2098     O2100   2.448       .  S
Zr2098     O2102   2.360       .  S
Zr2098     O2101   2.298       .  S
O2099      H2136   0.989       .  S
O2100      H2131   0.990       .  S
O2100      H2145   0.989       .  S
O2102      H2128   0.963       .  S
O2103     Zr2113   2.391       .  S
O2104     Zr2113   2.351       .  S
O2104      H2129   0.967       .  S
C2105      C2185   1.466       .  S
C2107      C2609   1.516       .  S
O2108      H2144   0.990       .  S
O2109      C2111   1.327       .  A
O2110      C2111   1.276       .  A
O2112     Zr2113   2.440       .  S
O2112      H2141   0.990       .  S
Zr2113     O2116   2.435       .  S
Zr2113     O2117   2.438       .  S
Zr2113     O2118   2.457       .  S
O2114      C2119   1.296       .  A
O2115      H2132   0.990       .  S
O2115      H2147   0.990       .  S
O2116      H2133   0.990       .  S
O2117      H2137   0.990       .  S
O2117      H2146   0.990       .  S
O2118      C2119   1.289       .  A
O2120      H2139   0.977       .  S
O2120      H2143   0.986       .  S
O2121      H2135   0.988       .  S
O2121      H2142   0.980       .  S
O2122      C2126   1.252       .  A
O2123      C2126   1.239       .  A
O2124      H2134   0.991       .  S
O2125      H2138   0.990       .  S
Zr2149     O2150   2.438       .  S
Zr2149     O2151   2.457       .  S
Zr2149     O2152   2.436       .  S
Zr2149     O2155   2.624       .  S
Zr2149     O2157   2.437       .  S
Zr2149     O2158   2.394       .  S
Zr2149     O2159   2.470       .  S
Zr2149     O2160   2.357       .  S
O2150      H2206   0.989       .  S
O2150      H2214   0.990       .  S
O2151      C2171   1.284       .  A
O2152      C2173   1.286       .  A
O2153     Zr2163   2.343       .  S
O2153      C2172   1.252       .  A
O2154     Zr2162   2.556       .  S
O2154      C2173   1.311       .  A
O2155      C2172   1.323       .  A
O2156     Zr2164   2.384       .  S
O2156      C2171   1.261       .  A
O2157     Zr2162   2.405       .  S
O2157     Zr2164   2.304       .  S
O2158     Zr2163   2.378       .  S
O2158     Zr2164   2.437       .  S
O2158      H2193   0.960       .  S
O2159     Zr2162   2.461       .  S
O2159     Zr2179   2.398       .  S
O2159      H2196   0.966       .  S
O2160     Zr2163   2.383       .  S
O2160     Zr2179   2.408       .  S
Zr2161     O2186   2.426       .  S
Zr2161     O2180   2.487       .  S
Zr2161     O2188   2.411       .  S
Zr2161     O2176   2.444       .  S
Zr2161     O2168   2.416       .  S
Zr2161     O2169   2.394       .  S
Zr2161     O2170   2.405       .  S
Zr2161     O2167   2.297       .  S
Zr2162     O2181   2.436       .  S
Zr2162     O2174   2.437       .  S
Zr2162     O2175   2.631       .  S
Zr2162     O2168   2.399       .  S
Zr2162     O2169   2.409       .  S
Zr2163     O2165   2.442       .  S
Zr2163     O2187   2.443       .  S
Zr2163     O2189   2.344       .  S
Zr2163     O2170   2.305       .  S
Zr2163     O2167   2.319       .  S
Zr2164     O2190   2.424       .  S
Zr2164     O2191   2.446       .  S
Zr2164     O2166   2.447       .  S
Zr2164     O2168   2.370       .  S
Zr2164     O2167   2.298       .  S
O2165      H2202   0.990       .  S
O2166      H2197   0.990       .  S
O2166      H2211   0.988       .  S
O2168      H2194   0.962       .  S
O2169     Zr2179   2.395       .  S
O2170     Zr2179   2.360       .  S
O2170      H2195   0.964       .  S
C2171      C2251   1.464       .  S
C2173      C2536   1.517       .  S
O2174      H2210   0.990       .  S
O2175      C2177   1.320       .  A
O2176      C2177   1.282       .  A
O2178     Zr2179   2.439       .  S
O2178      H2207   0.990       .  S
Zr2179     O2182   2.436       .  S
Zr2179     O2183   2.436       .  S
Zr2179     O2184   2.448       .  S
O2180      C2185   1.297       .  A
O2181      H2198   0.990       .  S
O2181      H2213   0.990       .  S
O2182      H2199   0.990       .  S
O2183      H2203   0.990       .  S
O2183      H2212   0.990       .  S
O2184      C2185   1.286       .  A
O2186      H2205   0.986       .  S
O2186      H2209   0.985       .  S
O2187      H2201   0.987       .  S
O2187      H2208   0.979       .  S
O2188      C2192   1.259       .  A
O2189      C2192   1.242       .  A
O2190      H2200   0.991       .  S
O2191      H2204   0.989       .  S
Zr2215     O2216   2.437       .  S
Zr2215     O2217   2.461       .  S
Zr2215     O2218   2.434       .  S
Zr2215     O2221   2.606       .  S
Zr2215     O2223   2.434       .  S
Zr2215     O2224   2.403       .  S
Zr2215     O2225   2.475       .  S
Zr2215     O2226   2.395       .  S
O2216      H2272   0.990       .  S
O2216      H2280   0.990       .  S
O2217      C2237   1.285       .  A
O2218      C2239   1.291       .  A
O2219     Zr2229   2.352       .  S
O2219      C2238   1.257       .  A
O2220     Zr2228   2.554       .  S
O2220      C2239   1.312       .  A
O2221      C2238   1.320       .  A
O2222     Zr2230   2.356       .  S
O2222      C2237   1.252       .  A
O2223     Zr2228   2.408       .  S
O2223     Zr2230   2.290       .  S
O2224     Zr2229   2.384       .  S
O2224     Zr2230   2.443       .  S
O2224      H2259   0.963       .  S
O2225     Zr2228   2.467       .  S
O2225     Zr2245   2.414       .  S
O2225      H2262   0.966       .  S
O2226     Zr2229   2.365       .  S
O2226     Zr2245   2.426       .  S
Zr2227     O2252   2.437       .  S
Zr2227     O2246   2.469       .  S
Zr2227     O2254   2.441       .  S
Zr2227     O2242   2.443       .  S
Zr2227     O2233   2.352       .  S
Zr2227     O2234   2.388       .  S
Zr2227     O2235   2.379       .  S
Zr2227     O2236   2.422       .  S
Zr2228     O2247   2.435       .  S
Zr2228     O2240   2.436       .  S
Zr2228     O2241   2.627       .  S
Zr2228     O2234   2.405       .  S
Zr2228     O2235   2.418       .  S
Zr2229     O2231   2.441       .  S
Zr2229     O2253   2.430       .  S
Zr2229     O2255   2.299       .  S
Zr2229     O2233   2.387       .  S
Zr2229     O2236   2.314       .  S
Zr2230     O2256   2.402       .  S
Zr2230     O2257   2.428       .  S
Zr2230     O2232   2.453       .  S
Zr2230     O2233   2.398       .  S
Zr2230     O2234   2.355       .  S
O2231      H2268   0.990       .  S
O2232      H2263   0.991       .  S
O2232      H2277   0.990       .  S
O2234      H2260   0.963       .  S
O2235     Zr2245   2.415       .  S
O2236     Zr2245   2.392       .  S
O2236      H2261   0.961       .  S
C2239      C2649   1.515       .  S
O2240      H2276   0.990       .  S
O2241      C2243   1.316       .  A
O2242      C2243   1.278       .  A
O2244     Zr2245   2.436       .  S
O2244      H2273   0.990       .  S
Zr2245     O2248   2.435       .  S
Zr2245     O2249   2.438       .  S
Zr2245     O2250   2.453       .  S
O2246      C2251   1.295       .  A
O2247      H2264   0.990       .  S
O2247      H2279   0.990       .  S
O2248      H2265   0.990       .  S
O2249      H2269   0.990       .  S
O2249      H2278   0.990       .  S
O2250      C2251   1.286       .  A
O2252      H2271   0.983       .  S
O2252      H2275   0.986       .  S
O2253      H2267   0.990       .  S
O2253      H2274   0.975       .  S
O2254      C2258   1.256       .  A
O2255      C2258   1.246       .  A
O2256      H2266   0.990       .  S
O2257      H2270   0.990       .  S
C2281      N2282   1.367       .  A
C2281      N2286   1.379       .  A
C2281      C2369   1.517       .  S
N2282      C2283   1.364       .  A
C2283      N2284   1.359       .  A
C2283      C2336   1.495       .  S
N2284      C2285   1.356       .  A
C2285      N2286   1.373       .  A
C2285      C2326   1.504       .  S
C2287      N2288   1.366       .  A
C2287      N2292   1.379       .  A
C2287      C2379   1.515       .  S
N2288      C2289   1.363       .  A
C2289      N2290   1.357       .  A
C2289      C2316   1.491       .  S
N2290      C2291   1.355       .  A
C2291      N2292   1.374       .  A
C2291      C2329   1.501       .  S
C2293      N2294   1.368       .  A
C2293      N2298   1.372       .  A
C2293      C2359   1.499       .  S
N2294      C2295   1.365       .  A
C2295      N2296   1.357       .  A
C2295      C2339   1.492       .  S
N2296      C2297   1.354       .  A
C2297      N2298   1.366       .  A
C2297      C2309   1.487       .  S
C2299      N2300   1.368       .  A
C2299      N2304   1.375       .  A
C2299      C2346   1.512       .  S
N2300      C2301   1.364       .  A
C2301      N2302   1.356       .  A
C2301      C2319   1.490       .  S
N2302      C2303   1.353       .  A
C2303      N2304   1.366       .  A
C2303      C2306   1.488       .  S
C2305      C2306   1.407       .  A
C2305      C2310   1.407       .  A
C2305      H2312   1.083       .  S
C2306      C2307   1.407       .  A
C2307      C2308   1.407       .  A
C2307      F2314   1.357       .  S
C2308      C2309   1.407       .  A
C2308      H2313   1.083       .  S
C2309      C2310   1.406       .  A
C2310      F2311   1.357       .  S
C2315      C2316   1.406       .  A
C2315      C2320   1.398       .  A
C2315      H2322   1.083       .  S
C2316      C2317   1.410       .  A
C2317      C2318   1.407       .  A
C2317      F2324   1.356       .  S
C2318      C2319   1.406       .  A
C2318      H2323   1.083       .  S
C2319      C2320   1.410       .  A
C2320      F2321   1.358       .  S
C2325      C2326   1.408       .  A
C2325      C2330   1.415       .  A
C2325      H2332   1.083       .  S
C2326      C2327   1.411       .  A
C2327      C2328   1.411       .  A
C2327      F2334   1.357       .  S
C2328      C2329   1.406       .  A
C2328      H2333   1.083       .  S
C2329      C2330   1.412       .  A
C2330      F2331   1.357       .  S
C2335      C2336   1.406       .  A
C2335      C2340   1.399       .  A
C2335      H2342   1.083       .  S
C2336      C2337   1.411       .  A
C2337      C2338   1.409       .  A
C2337      F2344   1.357       .  S
C2338      C2339   1.407       .  A
C2338      H2343   1.083       .  S
C2339      C2340   1.409       .  A
C2340      F2341   1.358       .  S
C2345      C2346   1.404       .  A
C2345      C2350   1.401       .  A
C2345      H2352   1.083       .  S
C2346      C2347   1.421       .  A
C2347      C2348   1.417       .  A
C2347      F2354   1.357       .  S
C2348      C2349   1.406       .  A
C2348      H2353   1.083   1_554  S
C2349      C2350   1.418       .  A
C2350      F2351   1.358       .  S
C2355      C2356   1.408       .  A
C2355      C2360   1.412       .  A
C2355      H2362   1.083       .  S
C2356      C2357   1.419       .  A
C2357      C2358   1.407       .  A
C2357      F2364   1.358       .  S
C2358      C2359   1.403       .  A
C2358      H2363   1.083       .  S
C2359      C2360   1.411       .  A
C2360      F2361   1.357       .  S
C2365      C2366   1.419       .  A
C2365      C2370   1.408       .  A
C2365      H2372   1.083       .  S
C2366      C2367   1.413       .  A
C2367      C2368   1.420       .  A
C2367      F2374   1.357       .  S
C2368      C2369   1.418       .  A
C2368      H2373   1.083       .  S
C2369      C2370   1.405       .  A
C2370      F2371   1.357       .  S
C2375      C2376   1.410       .  A
C2375      C2380   1.419       .  A
C2375      H2382   1.083   1_554  S
C2376      C2377   1.425       .  A
C2377      C2378   1.408       .  A
C2377      F2384   1.357       .  S
C2378      C2379   1.402       .  A
C2378      H2383   1.083       .  S
C2379      C2380   1.419       .  A
C2380      F2381   1.357       .  S
C2385      C2386   1.417       .  A
C2385      C2390   1.419       .  A
C2385      H2392   1.083       .  S
C2386      C2387   1.406       .  A
C2387      C2388   1.409       .  A
C2387      F2394   1.357       .  S
C2388      C2389   1.419       .  A
C2388      H2393   1.083       .  S
C2389      C2390   1.413       .  A
C2390      F2391   1.357       .  S
C2395      C2396   1.411       .  A
C2395      C2400   1.420   1_554  A
C2395      H2402   1.083       .  S
C2396      C2397   1.411   1_565  A
C2397      C2398   1.409       .  A
C2397      F2404   1.357       .  S
C2398      C2399   1.406   1_554  A
C2398      H2403   1.083   1_554  S
C2399      C2400   1.413   1_545  A
C2400      F2401   1.357       .  S
C2405      C2406   1.418       .  A
C2405      C2410   1.420       .  A
C2405      H2412   1.083       .  S
C2406      C2407   1.406       .  A
C2407      C2408   1.408       .  A
C2407      F2414   1.357       .  S
C2408      C2409   1.421       .  A
C2408      H2413   1.083       .  S
C2409      C2410   1.412       .  A
C2410      F2411   1.356       .  S
C2415      C2416   1.405   1_565  A
C2415      C2420   1.396   1_655  A
C2415      H2422   1.083       .  S
C2416      C2417   1.411       .  A
C2417      C2418   1.410   1_655  A
C2417      F2424   1.357       .  S
C2418      C2419   1.408       .  A
C2418      H2423   1.083       .  S
C2419      C2420   1.409   1_545  A
C2420      F2421   1.358       .  S
C2425      C2426   1.406       .  A
C2425      C2430   1.401   1_554  A
C2425      H2432   1.084       .  S
C2426      C2427   1.413   1_545  A
C2427      C2428   1.420   1_554  A
C2427      F2434   1.357       .  S
C2428      C2429   1.412   1_565  A
C2428      H2433   1.083       .  S
C2429      C2430   1.408       .  A
C2430      F2431   1.358       .  S
C2435      C2436   1.410       .  A
C2435      C2440   1.414   1_655  A
C2435      H2442   1.083       .  S
C2436      C2437   1.408   1_565  A
C2437      C2438   1.398   1_655  A
C2437      F2444   1.358       .  S
C2438      C2439   1.406   1_545  A
C2438      H2443   1.084       .  S
C2439      C2440   1.411       .  A
C2440      F2441   1.357       .  S
C2445      C2446   1.404       .  A
C2445      C2450   1.412       .  A
C2445      H2452   1.083       .  S
C2446      C2447   1.420       .  A
C2447      C2448   1.422       .  A
C2447      F2454   1.357       .  S
C2448      C2449   1.411       .  A
C2448      H2453   1.083       .  S
C2449      C2450   1.424       .  A
C2450      F2451   1.357       .  S
C2455      C2456   1.412       .  A
C2455      C2460   1.413       .  A
C2455      H2462   1.083       .  S
C2456      C2457   1.411   1_545  A
C2457      C2458   1.421       .  A
C2457      F2464   1.357       .  S
C2458      C2459   1.413   1_565  A
C2458      H2463   1.083       .  S
C2459      C2460   1.409       .  A
C2460      F2461   1.357       .  S
C2465      C2466   1.420       .  A
C2465      C2470   1.421       .  A
C2465      H2472   1.083       .  S
C2466      C2467   1.406       .  A
C2467      C2468   1.412       .  A
C2467      F2474   1.357       .  S
C2468      C2469   1.423       .  A
C2468      H2473   1.083       .  S
C2469      C2470   1.412       .  A
C2470      F2471   1.357       .  S
C2475      C2476   1.409       .  A
C2475      C2480   1.414       .  A
C2475      H2482   1.083       .  S
C2476      C2477   1.410       .  A
C2477      C2478   1.397       .  A
C2477      F2484   1.358   1_545  S
C2478      C2479   1.404       .  A
C2478      H2483   1.083   1_545  S
C2479      C2480   1.412       .  A
C2480      F2481   1.357       .  S
C2485      C2486   1.406   1_565  A
C2485      C2490   1.407       .  A
C2485      H2492   1.083       .  S
C2486      C2487   1.410       .  A
C2487      C2488   1.412       .  A
C2487      F2494   1.357       .  S
C2488      C2489   1.407       .  A
C2488      H2493   1.083       .  S
C2489      C2490   1.408   1_545  A
C2490      F2491   1.358       .  S
C2495      C2496   1.406       .  A
C2495      C2500   1.398       .  A
C2495      H2502   1.084       .  S
C2496      C2497   1.408   1_545  A
C2497      C2498   1.408       .  A
C2497      F2504   1.357       .  S
C2498      C2499   1.409   1_565  A
C2498      H2503   1.083       .  S
C2499      C2500   1.409       .  A
C2500      F2501   1.358       .  S
C2505      C2506   1.420       .  A
C2505      C2510   1.408       .  A
C2505      H2512   1.083       .  S
C2506      C2507   1.412       .  A
C2507      C2508   1.419       .  A
C2507      F2514   1.357       .  S
C2508      C2509   1.417       .  A
C2508      H2513   1.083       .  S
C2509      C2510   1.404       .  A
C2510      F2511   1.357       .  S
C2515      C2516   1.409       .  A
C2515      C2520   1.417       .  A
C2515      H2522   1.083       .  S
C2516      C2517   1.413       .  A
C2517      C2518   1.414       .  A
C2517      F2524   1.357       .  S
C2518      C2519   1.407       .  A
C2518      H2523   1.083       .  S
C2519      C2520   1.413       .  A
C2520      F2521   1.357       .  S
C2525      C2526   1.417       .  A
C2525      C2530   1.419   1_556  A
C2525      H2532   1.083       .  S
C2526      C2527   1.403       .  A
C2527      C2528   1.408       .  A
C2527      F2534   1.357       .  S
C2528      C2529   1.421   1_556  A
C2528      H2533   1.083       .  S
C2529      C2530   1.412       .  A
C2530      F2531   1.357       .  S
C2535      C2536   1.410       .  A
C2535      C2540   1.420       .  A
C2535      H2542   1.083       .  S
C2536      C2537   1.420       .  A
C2537      C2538   1.402       .  A
C2537      F2544   1.356       .  S
C2538      C2539   1.402       .  A
C2538      H2543   1.083       .  S
C2539      C2540   1.420       .  A
C2540      F2541   1.357       .  S
C2545      C2546   1.407       .  A
C2545      C2550   1.410       .  A
C2545      H2552   1.083       .  S
C2546      C2547   1.410       .  A
C2547      C2548   1.395       .  A
C2547      F2554   1.358       .  S
C2548      C2549   1.404       .  A
C2548      H2553   1.083       .  S
C2549      C2550   1.413       .  A
C2550      F2551   1.357       .  S
C2555      C2556   1.410       .  A
C2555      C2560   1.418       .  A
C2555      H2562   1.083       .  S
C2556      C2557   1.410       .  A
C2557      C2558   1.403       .  A
C2557      F2564   1.358       .  S
C2558      C2559   1.405       .  A
C2558      H2563   1.084       .  S
C2559      C2560   1.412       .  A
C2560      F2561   1.357       .  S
C2565      C2566   1.408       .  A
C2565      C2570   1.417   1_554  A
C2565      H2572   1.083       .  S
C2566      C2567   1.425   1_554  A
C2567      C2568   1.405       .  A
C2567      F2574   1.357       .  S
C2568      C2569   1.401       .  A
C2568      H2573   1.083       .  S
C2569      C2570   1.419       .  A
C2570      F2571   1.357       .  S
C2575      C2576   1.404       .  A
C2575      C2580   1.394       .  A
C2575      H2582   1.083       .  S
C2576      C2577   1.411       .  A
C2577      C2578   1.411       .  A
C2577      F2584   1.357       .  S
C2578      C2579   1.409       .  A
C2578      H2583   1.083       .  S
C2579      C2580   1.406       .  A
C2580      F2581   1.358       .  S
C2585      C2586   1.415       .  A
C2585      C2590   1.419       .  A
C2585      H2592   1.083       .  S
C2586      C2587   1.405       .  A
C2587      C2588   1.403       .  A
C2587      F2594   1.357       .  S
C2588      C2589   1.416       .  A
C2588      H2593   1.082       .  S
C2589      C2590   1.412       .  A
C2590      F2591   1.357       .  S
C2595      C2596   1.405       .  A
C2595      C2600   1.408       .  A
C2595      H2602   1.083       .  S
C2596      C2597   1.411       .  A
C2597      C2598   1.412       .  A
C2597      F2604   1.357       .  S
C2598      C2599   1.407       .  A
C2598      H2603   1.083       .  S
C2599      C2600   1.409       .  A
C2600      F2601   1.357       .  S
C2605      C2606   1.401       .  A
C2605      C2610   1.405       .  A
C2605      H2612   1.083       .  S
C2606      C2607   1.415       .  A
C2607      C2608   1.415       .  A
C2607      F2614   1.357       .  S
C2608      C2609   1.409       .  A
C2608      H2613   1.083       .  S
C2609      C2610   1.422       .  A
C2610      F2611   1.357       .  S
C2615      C2616   1.404       .  A
C2615      C2620   1.393       .  A
C2615      H2622   1.083       .  S
C2616      C2617   1.413       .  A
C2617      C2618   1.412       .  A
C2617      F2624   1.357       .  S
C2618      C2619   1.409       .  A
C2618      H2623   1.083       .  S
C2619      C2620   1.412       .  A
C2620      F2621   1.358       .  S
C2625      C2626   1.413       .  A
C2625      C2630   1.421       .  A
C2625      H2632   1.083       .  S
C2626      C2627   1.409       .  A
C2627      C2628   1.410       .  A
C2627      F2634   1.357       .  S
C2628      C2629   1.410       .  A
C2628      H2633   1.083       .  S
C2629      C2630   1.412       .  A
C2630      F2631   1.357       .  S
C2635      C2636   1.406       .  A
C2635      C2640   1.395       .  A
C2635      H2642   1.083       .  S
C2636      C2637   1.411       .  A
C2637      C2638   1.411       .  A
C2637      F2644   1.357       .  S
C2638      C2639   1.410       .  A
C2638      H2643   1.083       .  S
C2639      C2640   1.409       .  A
C2640      F2641   1.358       .  S
C2645      C2646   1.417       .  A
C2645      C2650   1.419       .  A
C2645      H2652   1.083       .  S
C2646      C2647   1.409       .  A
C2647      C2648   1.403       .  A
C2647      F2654   1.357       .  S
C2648      C2649   1.415       .  A
C2648      H2653   1.083       .  S
C2649      C2650   1.410       .  A
C2650      F2651   1.356       .  S
C2655      C2656   1.409       .  A
C2655      C2660   1.415   1_556  A
C2655      H2662   1.083       .  S
C2656      C2657   1.408       .  A
C2657      C2658   1.405   1_556  A
C2657      F2664   1.358       .  S
C2658      C2659   1.406       .  A
C2658      H2663   1.083       .  S
C2659      C2660   1.410       .  A
C2660      F2661   1.357       .  S
C2665      C2666   1.403       .  A
C2665      C2670   1.401       .  A
C2665      H2672   1.083       .  S
C2666      C2667   1.419       .  A
C2667      C2668   1.417       .  A
C2667      F2674   1.356       .  S
C2668      C2669   1.408       .  A
C2668      H2673   1.083       .  S
C2669      C2670   1.421       .  A
C2670      F2671   1.358       .  S
C2675      C2676   1.404       .  A
C2675      C2680   1.393   1_455  A
C2675      H2682   1.084       .  S
C2676      C2677   1.412       .  A
C2677      C2678   1.415   1_455  A
C2677      F2684   1.357       .  S
C2678      C2679   1.410       .  A
C2678      H2683   1.083       .  S
C2679      C2680   1.409       .  A
C2680      F2681   1.358       .  S
C2685      C2686   1.414       .  A
C2685      C2690   1.425   1_554  A
C2685      H2692   1.083       .  S
C2686      C2687   1.410       .  A
C2687      C2688   1.407   1_554  A
C2687      F2694   1.358       .  S
C2688      C2689   1.408       .  A
C2688      H2693   1.084       .  S
C2689      C2690   1.414       .  A
C2690      F2691   1.357       .  S
C2695      C2696   1.409       .  A
C2695      C2700   1.414   1_655  A
C2695      H2702   1.083       .  S
C2696      C2697   1.408       .  A
C2697      C2698   1.396   1_655  A
C2697      F2704   1.358       .  S
C2698      C2699   1.405       .  A
C2698      H2703   1.083       .  S
C2699      C2700   1.412       .  A
C2700      F2701   1.357       .  S
C2705      C2706   1.406       .  A
C2705      C2710   1.407       .  A
C2705      H2712   1.084       .  S
C2706      C2707   1.415       .  A
C2707      C2708   1.422       .  A
C2707      F2714   1.357       .  S
C2708      C2709   1.411       .  A
C2708      H2713   1.083       .  S
C2709      C2710   1.413       .  A
C2710      F2711   1.358       .  S
C2715      C2716   1.410       .  A
C2715      C2720   1.415       .  A
C2715      H2722   1.083       .  S
C2716      C2717   1.407       .  A
C2717      C2718   1.395       .  A
C2717      F2724   1.358       .  S
C2718      C2719   1.406       .  A
C2718      H2723   1.083       .  S
C2719      C2720   1.413       .  A
C2720      F2721   1.357       .  S
C2725      C2726   1.411       .  A
C2725      C2730   1.418       .  A
C2725      H2732   1.083       .  S
C2726      C2727   1.406       .  A
C2727      C2728   1.402       .  A
C2727      F2734   1.358       .  S
C2728      C2729   1.407       .  A
C2728      H2733   1.084       .  S
C2729      C2730   1.411       .  A
C2730      F2731   1.357       .  S
C2735      C2736   1.407       .  A
C2735      C2740   1.408       .  A
C2735      H2742   1.083       .  S
C2736      C2737   1.411       .  A
C2737      C2738   1.396       .  A
C2737      F2744   1.358       .  S
C2738      C2739   1.405       .  A
C2738      H2743   1.083       .  S
C2739      C2740   1.411       .  A
C2740      F2741   1.357       .  S
C2745      C2746   1.415       .  A
C2745      C2750   1.418       .  A
C2745      H2752   1.083       .  S
C2746      C2747   1.406       .  A
C2747      C2748   1.411       .  A
C2747      F2754   1.357       .  S
C2748      C2749   1.419       .  A
C2748      H2753   1.083       .  S
C2749      C2750   1.412       .  A
C2750      F2751   1.356   1_554  S
C2755      C2756   1.411       .  A
C2755      C2760   1.419       .  A
C2755      H2762   1.083       .  S
C2756      C2757   1.421       .  A
C2757      C2758   1.412       .  A
C2757      F2764   1.357       .  S
C2758      C2759   1.404       .  A
C2758      H2763   1.083       .  S
C2759      C2760   1.416       .  A
C2760      F2761   1.357       .  S
C2765      C2766   1.420       .  A
C2765      C2770   1.406       .  A
C2765      H2772   1.083       .  S
C2766      C2767   1.411       .  A
C2767      C2768   1.424       .  A
C2767      F2774   1.356       .  S
C2768      C2769   1.421       .  A
C2768      H2773   1.083       .  S
C2769      C2770   1.406       .  A
C2770      F2771   1.357       .  S
C2775      C2776   1.409       .  A
C2775      C2780   1.419       .  A
C2775      H2782   1.083       .  S
C2776      C2777   1.424       .  A
C2777      C2778   1.409       .  A
C2777      F2784   1.357       .  S
C2778      C2779   1.401       .  A
C2778      H2783   1.083       .  S
C2779      C2780   1.420       .  A
C2780      F2781   1.357       .  S
C2785      C2786   1.411       .  A
C2785      C2790   1.422       .  A
C2785      H2792   1.083       .  S
C2786      C2787   1.426       .  A
C2787      C2788   1.411       .  A
C2787      F2794   1.357       .  S
C2788      C2789   1.403       .  A
C2788      H2793   1.083       .  S
C2789      C2790   1.420       .  A
C2790      F2791   1.357       .  S
C2795      C2796   1.409       .  A
C2795      C2800   1.417       .  A
C2795      H2802   1.083       .  S
C2796      C2797   1.425       .  A
C2797      C2798   1.413       .  A
C2797      F2804   1.357       .  S
C2798      C2799   1.404       .  A
C2798      H2803   1.083       .  S
C2799      C2800   1.419       .  A
C2800      F2801   1.357       .  S
C2805      C2806   1.415       .  A
C2805      C2810   1.403       .  A
C2805      H2812   1.083       .  S
C2806      C2807   1.410       .  A
C2807      C2808   1.418       .  A
C2807      F2814   1.357       .  S
C2808      C2809   1.417       .  A
C2808      H2813   1.083       .  S
C2809      C2810   1.405       .  A
C2810      F2811   1.357       .  S
C2815      C2816   1.406       .  A
C2815      C2820   1.407       .  A
C2815      H2822   1.083       .  S
C2816      C2817   1.419       .  A
C2817      C2818   1.417       .  A
C2817      F2824   1.357       .  S
C2818      C2819   1.411       .  A
C2818      H2823   1.083       .  S
C2819      C2820   1.420       .  A
C2820      F2821   1.357       .  S
C2825      C2826   1.409       .  A
C2825      C2830   1.418       .  A
C2825      H2832   1.083       .  S
C2826      C2827   1.417       .  A
C2827      C2828   1.405       .  A
C2827      F2834   1.358       .  S
C2828      C2829   1.407       .  A
C2828      H2833   1.083       .  S
C2829      C2830   1.419       .  A
C2830      F2831   1.357       .  S
C2835      C2836   1.418       .  A
C2835      C2840   1.419       .  A
C2835      H2842   1.083       .  S
C2836      C2837   1.407       .  A
C2837      C2838   1.405       .  A
C2837      F2844   1.357       .  S
C2838      C2839   1.416       .  A
C2838      H2843   1.082       .  S
C2839      C2840   1.409       .  A
C2840      F2841   1.357       .  S
C2845      C2846   1.411       .  A
C2845      C2850   1.419       .  A
C2845      H2852   1.083   1_554  S
C2846      C2847   1.422       .  A
C2847      C2848   1.404       .  A
C2847      F2854   1.357       .  S
C2848      C2849   1.404       .  A
C2848      H2853   1.083       .  S
C2849      C2850   1.419       .  A
C2850      F2851   1.357       .  S
C2855      C2856   1.418       .  A
C2855      C2860   1.418       .  A
C2855      H2862   1.083       .  S
C2856      C2857   1.408       .  A
C2857      C2858   1.406       .  A
C2857      F2864   1.358       .  S
C2858      C2859   1.417       .  A
C2858      H2863   1.083       .  S
C2859      C2860   1.409       .  A
C2860      F2861   1.356       .  S
C2865      C2866   1.411       .  A
C2865      C2870   1.419       .  A
C2865      H2872   1.083       .  S
C2866      C2867   1.420       .  A
C2867      C2868   1.405       .  A
C2867      F2874   1.358       .  S
C2868      C2869   1.406       .  A
C2868      H2873   1.083       .  S
C2869      C2870   1.419       .  A
C2870      F2871   1.357       .  S
C2875      C2876   1.412       .  A
C2875      C2880   1.421       .  A
C2875      H2882   1.083       .  S
C2876      C2877   1.407       .  A
C2877      C2878   1.401       .  A
C2877      F2884   1.358       .  S
C2878      C2879   1.407       .  A
C2878      H2883   1.084       .  S
C2879      C2880   1.413       .  A
C2880      F2881   1.356       .  S
C2885      C2886   1.401       .  A
C2885      C2890   1.404       .  A
C2885      H2892   1.083       .  S
C2886      C2887   1.421       .  A
C2887      C2888   1.417   1_556  A
C2887      F2894   1.357   1_556  S
C2888      C2889   1.407       .  A
C2888      H2893   1.083       .  S
C2889      C2890   1.421   1_554  A
C2890      F2891   1.356       .  S
C2895      C2896   1.402       .  A
C2895      C2900   1.407       .  A
C2895      H2902   1.083       .  S
C2896      C2897   1.419       .  A
C2897      C2898   1.423       .  A
C2897      F2904   1.357       .  S
C2898      C2899   1.412       .  A
C2898      H2903   1.083       .  S
C2899      C2900   1.425       .  A
C2900      F2901   1.357       .  S
C2905      C2906   1.412       .  A
C2905      C2910   1.419       .  A
C2905      H2912   1.083       .  S
C2906      C2907   1.411       .  A
C2907      C2908   1.394       .  A
C2907      F2914   1.358       .  S
C2908      C2909   1.402       .  A
C2908      H2913   1.084       .  S
C2909      C2910   1.413       .  A
C2910      F2911   1.357       .  S
C2915      C2916   1.408       .  A
C2915      C2920   1.411       .  A
C2915      H2922   1.083       .  S
C2916      C2917   1.414       .  A
C2917      C2918   1.421       .  A
C2917      F2924   1.357       .  S
C2918      C2919   1.411       .  A
C2918      H2923   1.083       .  S
C2919      C2920   1.411       .  A
C2920      F2921   1.357       .  S
C2925      C2926   1.421   1_556  A
C2925      C2930   1.411       .  A
C2925      H2932   1.083       .  S
C2926      C2927   1.411       .  A
C2927      C2928   1.417   1_554  A
C2927      F2934   1.357       .  S
C2928      C2929   1.417       .  A
C2928      H2933   1.083       .  S
C2929      C2930   1.406       .  A
C2930      F2931   1.357       .  S
C2935      C2936   1.409       .  A
C2935      C2940   1.409       .  A
C2935      H2942   1.083       .  S
C2936      C2937   1.409       .  A
C2937      C2938   1.393       .  A
C2937      F2944   1.358       .  S
C2938      C2939   1.406       .  A
C2938      H2943   1.083       .  S
C2939      C2940   1.411       .  A
C2940      F2941   1.357       .  S
