geometry optimzed in LAMMPS
_audit_creation_date              2020-11-30 
_audit_creation_method            'lammps2cif' 
_symmetry_space_group_name_H-M    'P1' 
_symmetry_Int_Tables_number       1 
_symmetry_cell_setting            triclinic 
loop_ 
_symmetry_equiv_pos_as_xyz 
  x,y,z 
_cell_length_a                    34.85845241505525 
_cell_length_b                    39.52754197093397 
_cell_length_c                    31.221140406289557 
_cell_angle_alpha                 90.81077878060881 
_cell_angle_beta                  91.4842528100054 
_cell_angle_gamma                 91.09875624055897 
loop_ 
_atom_site_label 
_atom_site_type_symbol 
_atom_site_fract_x 
_atom_site_fract_y 
_atom_site_fract_z 
_atom_site_charge 
C1          C  0.49454754  0.90662106  0.46249004     0.02930
C2          C  0.49773965  0.87443459  0.48080697    -0.13220
C3          C  0.99506200  0.87038492  0.52536302     0.00430
C4          C  0.99012731  0.89927068  0.55142142    -0.11750
C5          C  0.98890500  0.93162041  0.53354308     0.02920
C6          C  0.49036700  0.93510460  0.48907656    -0.11170
H7          H  0.50204577  0.85255919  0.46028424     0.08520
H8          H  0.98816817  0.89670404  0.58578951     0.06050
H9          H  0.48864632  0.96003980  0.47518713     0.05890
C10         C  0.46149257  0.69688954  0.64681675     0.02930
C11         C  0.46399408  0.72798662  0.62592912    -0.13220
C12         C  0.49949629  0.74093768  0.61245134     0.00430
C13         C  0.03291653  0.72266393  0.62177759    -0.11750
C14         C  0.03114666  0.69260897  0.64541454     0.02920
C15         C  0.49523585  0.67977004  0.65755753    -0.11170
H16         H  0.43797019  0.74161241  0.61894026     0.08520
H17         H  0.06041403  0.73186291  0.61086686     0.06050
H18         H  0.49346842  0.65621950  0.67486267     0.05890
In19       In  0.49580944  0.92015742  0.19312927     1.36870
C20         C  0.49544506  0.97472984  0.14449192     0.77380
O21         O  0.05990995  0.91957528  0.20086230    -0.61060
O22         O  0.03256921  0.88315590  0.15905533    -0.51980
C23         C  0.49633659  0.91800813  0.27814946     0.70050
O24         O  0.50154007  0.94518457  0.25822207    -0.46830
C25         C  0.42783809  0.89168439  0.17392997     0.74750
O26         O  0.48882321  0.97610764  0.18399203    -0.58690
O27         O  0.45877086  0.87598883  0.17061692    -0.48780
O28         O  0.50203984  0.94556281  0.13007519    -0.55120
C29         C  0.06357909  0.89488628  0.17539034     0.84930
O30         O  0.49134659  0.89210697  0.25455818    -0.57020
O31         O  0.43177655  0.92194309  0.18673716    -0.60310
C32         C  0.27775137  0.83229390  0.13767173     0.02930
C33         C  0.24388663  0.84895005  0.14771911    -0.13220
C34         C  0.20802467  0.83433048  0.13628817     0.00430
C35         C  0.20617994  0.80294525  0.11470470    -0.11750
C36         C  0.23985421  0.78583736  0.10523409     0.02920
C37         C  0.27549256  0.80066288  0.11687468    -0.11170
H38         H  0.24544195  0.87335089  0.16407645     0.08520
H39         H  0.17855013  0.79179169  0.10549821     0.06050
H40         H  0.30165780  0.78762603  0.10942696     0.05890
C41         C  0.24020837  0.61455191  0.96157257     0.02930
C42         C  0.23564827  0.64688767  0.97974669    -0.13220
C43         C  0.24090830  0.65242635  0.02419799     0.00430
C44         C  0.24848526  0.62433937  0.05019660    -0.11750
C45         C  0.24881726  0.59149197  0.03251908     0.02920
C46         C  0.24570773  0.58680232  0.98811442    -0.11170
H47         H  0.22908483  0.66781378  0.95894199     0.08520
H48         H  0.25323775  0.62778480  0.08436754     0.06050
H49         H  0.24766681  0.56160298  0.97422020     0.05890
In50       In  0.24646076  0.60454030  0.69292127     1.36870
C51         C  0.25022689  0.55194821  0.63887589     0.77380
O52         O  0.18213204  0.60029445  0.69568448    -0.61060
O53         O  0.20670338  0.64464643  0.66947330    -0.51980
C54         C  0.24583982  0.60387877  0.77776301     0.70050
O55         O  0.23996863  0.57745569  0.75526675    -0.46830
C56         C  0.31340573  0.63512048  0.67871012     0.74750
O57         O  0.25600372  0.54952377  0.67874013    -0.58690
O58         O  0.28174298  0.64900970  0.67094857    -0.48780
O59         O  0.24252801  0.58138434  0.62665131    -0.55120
C60         C  0.17656732  0.62900353  0.67994711     0.84930
O61         O  0.25255249  0.63023843  0.75687210    -0.57020
O62         O  0.31078957  0.60574618  0.69368747    -0.60310
C63         C  0.20804394  0.18948003  0.63350887     0.02930
C64         C  0.20804562  0.22194080  0.61597216    -0.13220
C65         C  0.24155051  0.23597140  0.59878651     0.00430
C66         C  0.27553177  0.21737268  0.60101567    -0.11750
C67         C  0.27675893  0.18651395  0.62256039     0.02920
C68         C  0.24262666  0.17207181  0.63764630    -0.11170
H69         H  0.18169795  0.23601517  0.61520753     0.08520
H70         H  0.30169950  0.22778252  0.58806061     0.06050
H71         H  0.24312578  0.14775683  0.65327204     0.05890
C72         C  0.24793982  0.40474884  0.45973669     0.02930
C73         C  0.25121451  0.43395160  0.48590029    -0.13220
C74         C  0.24958815  0.43165785  0.53068388     0.00430
C75         C  0.24574324  0.39974009  0.54946885    -0.11750
C76         C  0.24403283  0.37013881  0.52389799     0.02920
C77         C  0.24449332  0.37300535  0.47912858    -0.11170
H78         H  0.25451903  0.45857238  0.47141099     0.08520
H79         H  0.24431511  0.39794491  0.58397721     0.06050
H80         H  0.24248558  0.35032597  0.45923512     0.05890
In81       In  0.25091353  0.42072572  0.18957492     1.36870
C82         C  0.25293490  0.47563212  0.14218625     0.77380
O83         O  0.31518250  0.42195512  0.19420159    -0.61060
O84         O  0.28730731  0.38241080  0.15769121    -0.51980
C85         C  0.24978220  0.41445930  0.27440192     0.70050
O86         O  0.25353969  0.44267665  0.25641625    -0.46830
C87         C  0.18148177  0.39724276  0.16696591     0.74750
O88         O  0.24818593  0.47702070  0.18211714    -0.58690
O89         O  0.21134882  0.38042777  0.16123288    -0.48780
O90         O  0.25705123  0.44635605  0.12679865    -0.55120
C91         C  0.31858560  0.39597549  0.17079150     0.84930
O92         O  0.24701485  0.38946294  0.24895593    -0.57020
O93         O  0.18729077  0.42601228  0.18398821    -0.60310
C94         C  0.03187002  0.33769330  0.12613385     0.02930
C95         C  0.49667488  0.35328133  0.13320737    -0.13220
C96         C  0.46197573  0.33496305  0.12768525     0.00430
C97         C  0.46236988  0.30119539  0.11320554    -0.11750
C98         C  0.49719829  0.28583379  0.10342259     0.02920
C99         C  0.03172045  0.30409832  0.11082426    -0.11170
H100        H  0.49625735  0.37947858  0.14395452     0.08520
H101        H  0.43558389  0.28707664  0.10901164     0.06050
H102        H  0.05871028  0.29213253  0.10436283     0.05890
C103        C  0.50344365  0.11403530  0.96232930     0.02930
C104        C  0.49928647  0.08576161  0.98843886    -0.13220
C105        C  0.49667934  0.08991616  0.03291957     0.00430
C106        C  0.49616255  0.12258879  0.05089930    -0.11750
C107        C  0.50134601  0.15122426  0.02538709     0.02920
C108        C  0.50607531  0.14654526  0.98103417    -0.11170
H109        H  0.49798792  0.06058568  0.97418125     0.08520
H110        H  0.49222243  0.12562369  0.08502304     0.06050
H111        H  0.51037843  0.16824708  0.96075052     0.05890
In112      In  0.49190579  0.10569275  0.69227348     1.36870
C113        C  0.48727780  0.05041839  0.64283206     0.77380
O114        O  0.42802417  0.11057096  0.69666998    -0.61060
O115        O  0.45678023  0.14174540  0.65249076    -0.51980
C116        C  0.49577753  0.10443105  0.77765436     0.70050
O117        O  0.50391934  0.07922801  0.75466351    -0.46830
C118        C  0.06063289  0.13319434  0.67789323     0.74750
O119        O  0.47829322  0.05015489  0.68169874    -0.58690
O120        O  0.03074799  0.15062804  0.67942754    -0.48780
O121        O  0.49769032  0.07885944  0.62917029    -0.55120
C122        C  0.42533563  0.13300298  0.66853986     0.84930
O123        O  0.48573998  0.13012810  0.75705772    -0.57020
O124        O  0.05552372  0.10216730  0.68472791    -0.60310
C125        C  0.46408976  0.10962802  0.84818710    -0.02050
C126        C  0.49759371  0.10414984  0.82498155     0.07630
C127        C  0.03283980  0.09958859  0.84716704    -0.02160
C128        C  0.03492108  0.10270544  0.89222842    -0.02160
C129        C  0.50167341  0.10982160  0.91515990     0.07770
C130        C  0.46610062  0.11240134  0.89313185    -0.02360
Br131      Br  0.41989205  0.11891121  0.92475532    -0.00910
Br132      Br  0.41496050  0.11104091  0.81865535    -0.00980
Br133      Br  0.08321856  0.09757776  0.92265736    -0.00940
Br134      Br  0.07834530  0.08971323  0.81584248    -0.00920
C135        C  0.02380531  0.19408802  0.08199758    -0.02050
C136        C  0.50071513  0.18585572  0.04516522     0.07630
C137        C  0.47620472  0.21069961  0.02810689    -0.02160
C138        C  0.47692073  0.24367391  0.04563030    -0.02160
C139        C  0.49773813  0.25111980  0.08412513     0.07770
C140        C  0.02031037  0.22567880  0.10290314    -0.02360
Br141      Br  0.04508161  0.23313179  0.15843054    -0.00910
Br142      Br  0.06239496  0.16338767  0.10269826    -0.00980
Br143      Br  0.45162919  0.27894430  0.01427892    -0.00940
Br144      Br  0.43922917  0.19977492  0.98260609    -0.00920
C145        C  0.38333893  0.37462481  0.19182186    -0.02050
C146        C  0.35612255  0.38229884  0.15945232     0.07630
C147        C  0.36442834  0.37570329  0.11618330    -0.02160
C148        C  0.39976548  0.36151908  0.10562066    -0.02160
C149        C  0.42532550  0.35102663  0.13832306     0.07770
C150        C  0.41636114  0.35679645  0.18149697    -0.02360
Br151      Br  0.44727203  0.33774412  0.22675343    -0.00910
Br152      Br  0.37634310  0.38886804  0.25025775    -0.00980
Br153      Br  0.41372335  0.35786630  0.04651188    -0.00940
Br154      Br  0.32851304  0.38799928  0.07117077    -0.00920
C155        C  0.09724745  0.35785141  0.10370974    -0.02050
C156        C  0.06909168  0.35585662  0.13548662     0.07630
C157        C  0.07773483  0.36939116  0.17694766    -0.02160
C158        C  0.11398294  0.38420823  0.18649981    -0.02160
C159        C  0.14264913  0.38406907  0.15556013     0.07770
C160        C  0.13421617  0.37096124  0.11412120    -0.02360
Br161      Br  0.17302311  0.37185489  0.07108370    -0.00910
Br162      Br  0.08500812  0.34411640  0.04520042    -0.00980
Br163      Br  0.12501735  0.40270057  0.24328553    -0.00940
Br164      Br  0.04174499  0.36572025  0.22251868    -0.00920
C165        C  0.27464923  0.38838707  0.38828201    -0.02050
C166        C  0.24822188  0.40716842  0.41208722     0.07630
C167        C  0.22124530  0.42724399  0.38991736    -0.02160
C168        C  0.22269689  0.43052894  0.34513203    -0.02160
C169        C  0.24846702  0.41110164  0.32151781     0.07770
C170        C  0.27289262  0.38861133  0.34319925    -0.02360
Br171      Br  0.30354759  0.35734770  0.31172026    -0.00910
Br172      Br  0.31516640  0.36392881  0.41690976    -0.00980
Br173      Br  0.18730137  0.45998145  0.31591924    -0.00940
Br174      Br  0.17993685  0.44807891  0.41963428    -0.00920
C175        C  0.36631302  0.16438746  0.68682936    -0.02050
C176        C  0.38812842  0.14776732  0.65585768     0.07630
C177        C  0.37366783  0.14441364  0.61335300    -0.02160
C178        C  0.33686562  0.15640962  0.60240874    -0.02160
C179        C  0.31451294  0.17192616  0.63387609     0.07770
C180        C  0.32958589  0.17623116  0.67600099    -0.02360
Br181      Br  0.30061826  0.19984350  0.71861327    -0.00910
Br182      Br  0.38808856  0.17363081  0.74322862    -0.00980
Br183      Br  0.31673576  0.15118938  0.54455085    -0.00940
Br184      Br  0.40404296  0.12301605  0.57028048    -0.00920
C185        C  0.15805269  0.17744806  0.68802747    -0.02050
C186        C  0.17126568  0.17362058  0.64598139     0.07630
C187        C  0.14823048  0.15627040  0.61472801    -0.02160
C188        C  0.11193372  0.14318379  0.62531413    -0.02160
C189        C  0.09847620  0.14746626  0.66714446     0.07770
C190        C  0.12160333  0.16445617  0.69856452    -0.02360
Br191      Br  0.10328608  0.16968945  0.75595096    -0.00910
Br192      Br  0.18984267  0.20064433  0.73092888    -0.00980
Br193      Br  0.08007768  0.12006374  0.58224629    -0.00940
Br194      Br  0.16648380  0.15058503  0.55728883    -0.00920
C195        C  0.21369973  0.27936103  0.54843794    -0.02050
C196        C  0.24152373  0.27053392  0.58001185     0.07630
C197        C  0.26961183  0.29501272  0.59350463    -0.02160
C198        C  0.27177804  0.32647202  0.57315487    -0.02160
C199        C  0.24262229  0.33606263  0.54378566     0.07770
C200        C  0.21286121  0.31256836  0.53258308    -0.02360
Br201      Br  0.16983576  0.32601692  0.49688266    -0.00910
Br202      Br  0.17810004  0.24581983  0.52409750    -0.00980
Br203      Br  0.31687829  0.35476180  0.58309309    -0.00940
Br204      Br  0.30394029  0.28706537  0.64189091    -0.00920
C205        C  0.28274606  0.50010625  0.61122692    -0.02050
C206        C  0.25158545  0.52239425  0.60923576     0.07630
C207        C  0.22081418  0.51536664  0.58004998    -0.02160
C208        C  0.21914432  0.48466769  0.55679804    -0.02160
C209        C  0.25060971  0.46286946  0.55775591     0.07770
C210        C  0.28296912  0.47127160  0.58411348    -0.02360
Br211      Br  0.32824191  0.44423590  0.58178962    -0.00910
Br212      Br  0.32615377  0.50983643  0.64936097    -0.00980
Br213      Br  0.17217111  0.47123983  0.52686079    -0.00940
Br214      Br  0.18068106  0.54742539  0.57115952    -0.00920
C215        C  0.28428713  0.54322624  0.06509203    -0.02050
C216        C  0.25037752  0.56183288  0.06070065     0.07630
C217        C  0.21719125  0.55152362  0.08227084    -0.02160
C218        C  0.21856465  0.52408377  0.11031813    -0.02160
C219        C  0.25255168  0.50571284  0.11508088     0.07770
C220        C  0.28520657  0.51486526  0.09184735    -0.02360
Br221      Br  0.33132783  0.48886592  0.09730464    -0.00910
Br222      Br  0.32920444  0.55645240  0.03412373    -0.00980
Br223      Br  0.17318286  0.51043953  0.14036084    -0.00940
Br224      Br  0.16892521  0.57300362  0.07047031    -0.00920
C225        C  0.21040637  0.59598020  0.89099111    -0.02050
C226        C  0.24185278  0.61013150  0.91463749     0.07630
C227        C  0.27556575  0.61968243  0.89358622    -0.02160
C228        C  0.27681504  0.61759459  0.84872796    -0.02160
C229        C  0.24500141  0.60432545  0.82486779     0.07770
C230        C  0.21209032  0.59276982  0.84609933    -0.02360
Br231      Br  0.16854329  0.57420219  0.81368589    -0.00910
Br232      Br  0.16503026  0.58138553  0.92021249    -0.00980
Br233      Br  0.32276181  0.63185118  0.82012990    -0.00940
Br234      Br  0.32095751  0.63358395  0.92636887    -0.00920
C235        C  0.21718859  0.69308793  0.08075553    -0.02050
C236        C  0.23886904  0.68729009  0.04357165     0.07630
C237        C  0.25922751  0.71503799  0.02589014    -0.02160
C238        C  0.25669830  0.74764918  0.04414494    -0.02160
C239        C  0.23810026  0.75234021  0.08323222     0.07770
C240        C  0.21899508  0.72476025  0.10191084    -0.02360
Br241      Br  0.19726608  0.72955541  0.15802037    -0.00910
Br242      Br  0.18246117  0.65907195  0.10206590    -0.00980
Br243      Br  0.27776691  0.78624742  0.01464823    -0.00940
Br244      Br  0.29361236  0.70926031  0.97902592    -0.00920
C245        C  0.02862145  0.01234234  0.09317033    -0.02050
C246        C  0.49584653  0.00475198  0.11701226     0.07670
C247        C  0.46333595  0.02532249  0.11352559    -0.02160
C248        C  0.46311513  0.05263863  0.08507150    -0.02160
C249        C  0.49586732  0.06014442  0.06110061     0.07770
C250        C  0.02877314  0.04013859  0.06558445    -0.02360
Br251      Br  0.07485442  0.05170453  0.03552196    -0.00910
Br252      Br  0.07436354  0.98599311  0.10039373    -0.00980
Br253      Br  0.41741922  0.07900326  0.07769330    -0.00940
Br254      Br  0.41869301  0.01571713  0.14686687    -0.00920
C255        C  0.12589248  0.87011682  0.19903971    -0.02050
C256        C  0.10119557  0.88070113  0.16554755     0.07630
C257        C  0.11229205  0.87722204  0.12261158    -0.02160
C258        C  0.14797606  0.86329667  0.11322165    -0.02160
C259        C  0.17213941  0.85170829  0.14659234     0.07770
C260        C  0.16112339  0.85529689  0.18955542    -0.02360
Br261      Br  0.19328178  0.83826231  0.23536682    -0.00910
Br262      Br  0.11037251  0.87374563  0.25785778    -0.00980
Br263      Br  0.16434849  0.86103293  0.05461987    -0.00940
Br264      Br  0.07911255  0.89220086  0.07647415    -0.00920
C265        C  0.36401793  0.89217660  0.13582556    -0.02050
C266        C  0.38987798  0.87601218  0.16393807     0.07630
C267        C  0.37894715  0.84537500  0.18324677    -0.02160
C268        C  0.34170356  0.83183372  0.17601558    -0.02160
C269        C  0.31582374  0.84799369  0.14786364     0.07770
C270        C  0.32722781  0.87802704  0.12743310    -0.02360
Br271      Br  0.29331983  0.89894973  0.08611427    -0.00910
Br272      Br  0.37994051  0.93238187  0.10613654    -0.00980
Br273      Br  0.32565797  0.79180525  0.20612984    -0.00940
Br274      Br  0.41455503  0.82198171  0.22021043    -0.00920
C275        C  0.07376682  0.64176485  0.64181050    -0.02050
C276        C  0.06704474  0.67478394  0.65735894     0.07630
C277        C  0.09491234  0.69082225  0.68470820    -0.02160
C278        C  0.13099756  0.67614401  0.69148729    -0.02160
C279        C  0.13801478  0.64362101  0.67473839     0.07770
C280        C  0.10810771  0.62551056  0.65289310    -0.02360
Br281      Br  0.11328232  0.57829703  0.63884365    -0.00910
Br282      Br  0.03743930  0.61907523  0.60326145    -0.00980
Br283      Br  0.16986359  0.69967569  0.72634725    -0.00940
Br284      Br  0.08252601  0.73114036  0.71630292    -0.00920
C285        C  0.39904343  0.69596321  0.68552329    -0.02050
C286        C  0.42330107  0.68139915  0.65513491     0.07630
C287        C  0.41045718  0.65252921  0.63134005    -0.02160
C288        C  0.37480348  0.63711405  0.63972793    -0.02160
C289        C  0.35073959  0.65153522  0.67023102     0.07770
C290        C  0.36252033  0.68140003  0.69246794    -0.02360
Br291      Br  0.32899073  0.70186012  0.73318655    -0.00910
Br292      Br  0.41610524  0.73550548  0.71814021    -0.00980
Br293      Br  0.35802695  0.59704555  0.60782961    -0.00940
Br294      Br  0.44003225  0.63555911  0.58469915    -0.00920
C295        C  0.45279980  0.00720983  0.59611473    -0.02050
C296        C  0.48716867  0.01972923  0.61561212     0.07630
C297        C  0.02205948  0.00374381  0.60766927    -0.02160
C298        C  0.02259671  0.97513429  0.58042806    -0.02160
C299        C  0.48811670  0.96206972  0.56159389     0.07770
C300        C  0.45326877  0.97839801  0.56903834    -0.02360
Br301      Br  0.40644618  0.96154056  0.54150946    -0.00910
Br302      Br  0.40540592  0.03009869  0.60584665    -0.00980
Br303      Br  0.07082545  0.95476414  0.56738928    -0.00940
Br304      Br  0.06910399  0.02102018  0.63450977    -0.00920
C305        C  0.02588079  0.92712995  0.39576354    -0.02050
C306        C  0.49487529  0.91049054  0.41533512     0.07630
C307        C  0.46354867  0.89815075  0.38987081    -0.02160
C308        C  0.46424975  0.90040254  0.34502242    -0.02160
C309        C  0.49555814  0.91640768  0.32533997     0.07770
C310        C  0.02597875  0.93048453  0.35087767    -0.02360
Br311      Br  0.06857600  0.95321150  0.32443024    -0.00910
Br312      Br  0.06861322  0.94476772  0.43032709    -0.00980
Br313      Br  0.42102987  0.88315971  0.31085692    -0.00940
Br314      Br  0.41820658  0.88051865  0.41645161    -0.00920
C315        C  0.47647996  0.77727329  0.55151818    -0.02050
C316        C  0.50097424  0.77315642  0.58782808     0.07630
C317        C  0.02537013  0.80052972  0.60123925    -0.02160
C318        C  0.02579197  0.83090830  0.57821468    -0.02160
C319        C  0.49825072  0.83627212  0.54516083     0.07770
C320        C  0.47324211  0.80919143  0.53233580    -0.02360
Br321      Br  0.43202945  0.81584167  0.49127191    -0.00910
Br322      Br  0.44837828  0.73893845  0.52630620    -0.00980
Br323      Br  0.06559882  0.86444339  0.59113118    -0.00940
Br324      Br  0.05605626  0.79855673  0.65323306    -0.00920
C325        C  0.99454756  0.90662105  0.46249004     0.02930
C326        C  0.99773966  0.87443459  0.48080697    -0.13220
C327        C  0.49506198  0.87038492  0.52536303     0.00430
C328        C  0.49012729  0.89927068  0.55142143    -0.11750
C329        C  0.48890499  0.93162041  0.53354309     0.02920
C330        C  0.99036702  0.93510460  0.48907655    -0.11170
H331        H  0.00204578  0.85255918  0.46028424     0.08520
H332        H  0.48816815  0.89670404  0.58578951     0.06050
H333        H  0.98864633  0.96003979  0.47518713     0.05890
C334        C  0.96149258  0.69688955  0.64681676     0.02930
C335        C  0.96399409  0.72798663  0.62592913    -0.13220
C336        C  0.99949630  0.74093769  0.61245135     0.00430
C337        C  0.53291653  0.72266393  0.62177758    -0.11750
C338        C  0.53114665  0.69260897  0.64541454     0.02920
C339        C  0.99523585  0.67977004  0.65755753    -0.11170
H340        H  0.93797020  0.74161242  0.61894027     0.08520
H341        H  0.56041403  0.73186291  0.61086686     0.06050
H342        H  0.99346842  0.65621950  0.67486268     0.05890
In343      In  0.99580944  0.92015742  0.19312927     1.36870
C344        C  0.99544506  0.97472983  0.14449191     0.77380
O345        O  0.55990995  0.91957529  0.20086230    -0.61060
O346        O  0.53256921  0.88315590  0.15905534    -0.51980
C347        C  0.99633659  0.91800812  0.27814946     0.70050
O348        O  0.00154007  0.94518457  0.25822206    -0.46830
C349        C  0.92783809  0.89168439  0.17392996     0.74750
O350        O  0.98882321  0.97610764  0.18399203    -0.58690
O351        O  0.95877086  0.87598883  0.17061691    -0.48780
O352        O  0.00203984  0.94556281  0.13007519    -0.55120
C353        C  0.56357909  0.89488628  0.17539034     0.84930
O354        O  0.99134659  0.89210697  0.25455818    -0.57020
O355        O  0.93177655  0.92194309  0.18673716    -0.60310
C356        C  0.77775137  0.83229390  0.13767172     0.02930
C357        C  0.74388663  0.84895005  0.14771911    -0.13220
C358        C  0.70802467  0.83433048  0.13628817     0.00430
C359        C  0.70617994  0.80294525  0.11470470    -0.11750
C360        C  0.73985420  0.78583736  0.10523409     0.02920
C361        C  0.77549256  0.80066288  0.11687467    -0.11170
H362        H  0.74544195  0.87335089  0.16407644     0.08520
H363        H  0.67855013  0.79179169  0.10549821     0.06050
H364        H  0.80165779  0.78762603  0.10942695     0.05890
C365        C  0.74020836  0.61455190  0.96157257     0.02930
C366        C  0.73564825  0.64688767  0.97974669    -0.13220
C367        C  0.74090829  0.65242635  0.02419799     0.00430
C368        C  0.74848525  0.62433937  0.05019660    -0.11750
C369        C  0.74881725  0.59149197  0.03251908     0.02920
C370        C  0.74570772  0.58680231  0.98811442    -0.11170
H371        H  0.72908481  0.66781378  0.95894199     0.08520
H372        H  0.75323775  0.62778480  0.08436754     0.06050
H373        H  0.74766680  0.56160298  0.97422020     0.05890
In374      In  0.74646076  0.60454031  0.69292127     1.36870
C375        C  0.75022689  0.55194822  0.63887589     0.77380
O376        O  0.68213204  0.60029446  0.69568447    -0.61060
O377        O  0.70670338  0.64464644  0.66947330    -0.51980
C378        C  0.74583981  0.60387877  0.77776301     0.70050
O379        O  0.73996863  0.57745570  0.75526674    -0.46830
C380        C  0.81340573  0.63512049  0.67871012     0.74750
O381        O  0.75600372  0.54952378  0.67874012    -0.58690
O382        O  0.78174298  0.64900971  0.67094857    -0.48780
O383        O  0.74252801  0.58138435  0.62665131    -0.55120
C384        C  0.67656732  0.62900354  0.67994711     0.84930
O385        O  0.75255248  0.63023844  0.75687210    -0.57020
O386        O  0.81078957  0.60574619  0.69368748    -0.60310
C387        C  0.70804394  0.18948003  0.63350884     0.02930
C388        C  0.70804562  0.22194080  0.61597215    -0.13220
C389        C  0.74155051  0.23597140  0.59878649     0.00430
C390        C  0.77553177  0.21737268  0.60101565    -0.11750
C391        C  0.77675893  0.18651395  0.62256036     0.02920
C392        C  0.74262665  0.17207181  0.63764627    -0.11170
H393        H  0.68169795  0.23601517  0.61520752     0.08520
H394        H  0.80169949  0.22778252  0.58806058     0.06050
H395        H  0.74312578  0.14775683  0.65327202     0.05890
C396        C  0.74793981  0.40474885  0.45973669     0.02930
C397        C  0.75121451  0.43395161  0.48590029    -0.13220
C398        C  0.74958815  0.43165786  0.53068388     0.00430
C399        C  0.74574324  0.39974010  0.54946885    -0.11750
C400        C  0.74403282  0.37013882  0.52389799     0.02920
C401        C  0.74449332  0.37300536  0.47912858    -0.11170
H402        H  0.75451903  0.45857238  0.47141099     0.08520
H403        H  0.74431510  0.39794491  0.58397721     0.06050
H404        H  0.74248557  0.35032598  0.45923512     0.05890
In405      In  0.75091353  0.42072571  0.18957492     1.36870
C406        C  0.75293490  0.47563212  0.14218624     0.77380
O407        O  0.81518250  0.42195512  0.19420158    -0.61060
O408        O  0.78730731  0.38241079  0.15769122    -0.51980
C409        C  0.74978220  0.41445930  0.27440192     0.70050
O410        O  0.75353969  0.44267665  0.25641625    -0.46830
C411        C  0.68148177  0.39724275  0.16696591     0.74750
O412        O  0.74818593  0.47702069  0.18211713    -0.58690
O413        O  0.71134882  0.38042777  0.16123288    -0.48780
O414        O  0.75705123  0.44635605  0.12679865    -0.55120
C415        C  0.81858559  0.39597548  0.17079150     0.84930
O416        O  0.74701484  0.38946294  0.24895593    -0.57020
O417        O  0.68729077  0.42601227  0.18398821    -0.60310
C418        C  0.53187002  0.33769330  0.12613384     0.02930
C419        C  0.99667488  0.35328132  0.13320737    -0.13220
C420        C  0.96197573  0.33496304  0.12768525     0.00430
C421        C  0.96236989  0.30119538  0.11320554    -0.11750
C422        C  0.99719830  0.28583378  0.10342260     0.02920
C423        C  0.53172044  0.30409832  0.11082425    -0.11170
H424        H  0.99625734  0.37947857  0.14395453     0.08520
H425        H  0.93558390  0.28707663  0.10901163     0.06050
H426        H  0.55871027  0.29213253  0.10436281     0.05890
C427        C  0.00344366  0.11403530  0.96232930     0.02930
C428        C  0.99928648  0.08576161  0.98843886    -0.13220
C429        C  0.99667935  0.08991616  0.03291956     0.00430
C430        C  0.99616257  0.12258879  0.05089930    -0.11750
C431        C  0.00134603  0.15122426  0.02538709     0.02920
C432        C  0.00607533  0.14654525  0.98103416    -0.11170
H433        H  0.99798793  0.06058568  0.97418124     0.08520
H434        H  0.99222244  0.12562369  0.08502304     0.06050
H435        H  0.01037846  0.16824707  0.96075052     0.05890
In436      In  0.99190579  0.10569275  0.69227347     1.36870
C437        C  0.98727781  0.05041839  0.64283205     0.77380
O438        O  0.92802417  0.11057097  0.69666997    -0.61060
O439        O  0.95678023  0.14174539  0.65249074    -0.51980
C440        C  0.99577753  0.10443106  0.77765435     0.70050
O441        O  0.00391933  0.07922801  0.75466351    -0.46830
C442        C  0.56063290  0.13319434  0.67789322     0.74750
O443        O  0.97829318  0.05015490  0.68169872    -0.58690
O444        O  0.53074800  0.15062805  0.67942757    -0.48780
O445        O  0.99769036  0.07885943  0.62917030    -0.55120
C446        C  0.92533563  0.13300299  0.66853985     0.84930
O447        O  0.98573999  0.13012810  0.75705771    -0.57020
O448        O  0.55552372  0.10216730  0.68472787    -0.60310
C449        C  0.96408977  0.10962804  0.84818709    -0.02050
C450        C  0.99759371  0.10414985  0.82498154     0.07630
C451        C  0.53283980  0.09958861  0.84716705    -0.02160
C452        C  0.53492107  0.10270546  0.89222843    -0.02160
C453        C  0.00167342  0.10982160  0.91515990     0.07770
C454        C  0.96610063  0.11240136  0.89313184    -0.02360
Br455      Br  0.91989207  0.11891124  0.92475532    -0.00910
Br456      Br  0.91496051  0.11104096  0.81865535    -0.00980
Br457      Br  0.58321856  0.09757780  0.92265737    -0.00940
Br458      Br  0.57834531  0.08971326  0.81584250    -0.00920
C459        C  0.52380530  0.19408802  0.08199758    -0.02050
C460        C  0.00071516  0.18585572  0.04516522     0.07630
C461        C  0.97620475  0.21069962  0.02810688    -0.02160
C462        C  0.97692077  0.24367391  0.04563029    -0.02160
C463        C  0.99773815  0.25111980  0.08412513     0.07770
C464        C  0.52031036  0.22567880  0.10290314    -0.02360
Br465      Br  0.54508161  0.23313180  0.15843053    -0.00910
Br466      Br  0.56239495  0.16338768  0.10269825    -0.00980
Br467      Br  0.95162924  0.27894432  0.01427890    -0.00940
Br468      Br  0.93922922  0.19977493  0.98260606    -0.00920
C469        C  0.88333893  0.37462481  0.19182186    -0.02050
C470        C  0.85612254  0.38229883  0.15945232     0.07630
C471        C  0.86442834  0.37570327  0.11618330    -0.02160
C472        C  0.89976547  0.36151906  0.10562066    -0.02160
C473        C  0.92532550  0.35102662  0.13832306     0.07770
C474        C  0.91636114  0.35679644  0.18149697    -0.02360
Br475      Br  0.94727203  0.33774411  0.22675343    -0.00910
Br476      Br  0.87634311  0.38886803  0.25025775    -0.00980
Br477      Br  0.91372333  0.35786627  0.04651187    -0.00940
Br478      Br  0.82851303  0.38799925  0.07117077    -0.00920
C479        C  0.59724746  0.35785141  0.10370973    -0.02050
C480        C  0.56909168  0.35585662  0.13548662     0.07630
C481        C  0.57773483  0.36939115  0.17694766    -0.02160
C482        C  0.61398295  0.38420822  0.18649981    -0.02160
C483        C  0.64264913  0.38406907  0.15556013     0.07770
C484        C  0.63421617  0.37096123  0.11412119    -0.02360
Br485      Br  0.67302311  0.37185489  0.07108369    -0.00910
Br486      Br  0.58500812  0.34411640  0.04520041    -0.00980
Br487      Br  0.62501735  0.40270056  0.24328553    -0.00940
Br488      Br  0.54174500  0.36572023  0.22251868    -0.00920
C489        C  0.77464923  0.38838708  0.38828202    -0.02050
C490        C  0.74822188  0.40716843  0.41208722     0.07630
C491        C  0.72124530  0.42724400  0.38991735    -0.02160
C492        C  0.72269689  0.43052895  0.34513203    -0.02160
C493        C  0.74846702  0.41110165  0.32151781     0.07770
C494        C  0.77289262  0.38861133  0.34319925    -0.02360
Br495      Br  0.80354759  0.35734770  0.31172027    -0.00910
Br496      Br  0.81516640  0.36392882  0.41690976    -0.00980
Br497      Br  0.68730137  0.45998145  0.31591924    -0.00940
Br498      Br  0.67993685  0.44807892  0.41963427    -0.00920
C499        C  0.86631303  0.16438747  0.68682934    -0.02050
C500        C  0.88812842  0.14776733  0.65585766     0.07630
C501        C  0.87366783  0.14441364  0.61335298    -0.02160
C502        C  0.83686561  0.15640962  0.60240872    -0.02160
C503        C  0.81451294  0.17192616  0.63387607     0.07770
C504        C  0.82958589  0.17623117  0.67600096    -0.02360
Br505      Br  0.80061826  0.19984352  0.71861324    -0.00910
Br506      Br  0.88808856  0.17363083  0.74322860    -0.00980
Br507      Br  0.81673575  0.15118937  0.54455083    -0.00940
Br508      Br  0.90404295  0.12301604  0.57028047    -0.00920
C509        C  0.65805269  0.17744807  0.68802745    -0.02050
C510        C  0.67126568  0.17362058  0.64598137     0.07630
C511        C  0.64823048  0.15627039  0.61472800    -0.02160
C512        C  0.61193372  0.14318378  0.62531412    -0.02160
C513        C  0.59847620  0.14746626  0.66714445     0.07770
C514        C  0.62160333  0.16445618  0.69856450    -0.02360
Br515      Br  0.60328607  0.16968947  0.75595094    -0.00910
Br516      Br  0.68984267  0.20064435  0.73092885    -0.00980
Br517      Br  0.58007768  0.12006372  0.58224629    -0.00940
Br518      Br  0.66648380  0.15058502  0.55728882    -0.00920
C519        C  0.71369972  0.27936104  0.54843793    -0.02050
C520        C  0.74152373  0.27053392  0.58001183     0.07630
C521        C  0.76961183  0.29501272  0.59350461    -0.02160
C522        C  0.77177803  0.32647202  0.57315486    -0.02160
C523        C  0.74262228  0.33606264  0.54378566     0.07770
C524        C  0.71286120  0.31256837  0.53258307    -0.02360
Br525      Br  0.66983575  0.32601693  0.49688266    -0.00910
Br526      Br  0.67810003  0.24581984  0.52409749    -0.00980
Br527      Br  0.81687828  0.35476180  0.58309308    -0.00940
Br528      Br  0.80394029  0.28706537  0.64189089    -0.00920
C529        C  0.78274606  0.50010626  0.61122692    -0.02050
C530        C  0.75158545  0.52239426  0.60923575     0.07630
C531        C  0.72081418  0.51536665  0.58004997    -0.02160
C532        C  0.71914432  0.48466770  0.55679804    -0.02160
C533        C  0.75060971  0.46286946  0.55775591     0.07770
C534        C  0.78296911  0.47127160  0.58411348    -0.02360
Br535      Br  0.82824190  0.44423590  0.58178963    -0.00910
Br536      Br  0.82615377  0.50983644  0.64936097    -0.00980
Br537      Br  0.67217111  0.47123985  0.52686078    -0.00940
Br538      Br  0.68068107  0.54742541  0.57115951    -0.00920
C539        C  0.78428712  0.54322623  0.06509201    -0.02050
C540        C  0.75037751  0.56183287  0.06070065     0.07630
C541        C  0.71719124  0.55152362  0.08227085    -0.02160
C542        C  0.71856465  0.52408377  0.11031813    -0.02160
C543        C  0.75255168  0.50571283  0.11508087     0.07770
C544        C  0.78520657  0.51486526  0.09184734    -0.02360
Br545      Br  0.83132782  0.48886591  0.09730461    -0.00910
Br546      Br  0.82920443  0.55645239  0.03412370    -0.00980
Br547      Br  0.67318287  0.51043954  0.14036086    -0.00940
Br548      Br  0.66892521  0.57300363  0.07047033    -0.00920
C549        C  0.71040636  0.59598020  0.89099111    -0.02050
C550        C  0.74185276  0.61013150  0.91463749     0.07630
C551        C  0.77556574  0.61968243  0.89358622    -0.02160
C552        C  0.77681503  0.61759460  0.84872796    -0.02160
C553        C  0.74500140  0.60432545  0.82486779     0.07770
C554        C  0.71209032  0.59276982  0.84609933    -0.02360
Br555      Br  0.66854329  0.57420219  0.81368588    -0.00910
Br556      Br  0.66503025  0.58138552  0.92021249    -0.00980
Br557      Br  0.82276180  0.63185119  0.82012990    -0.00940
Br558      Br  0.82095750  0.63358395  0.92636887    -0.00920
C559        C  0.71718858  0.69308793  0.08075554    -0.02050
C560        C  0.73886903  0.68729009  0.04357165     0.07630
C561        C  0.75922749  0.71503799  0.02589013    -0.02160
C562        C  0.75669829  0.74764918  0.04414494    -0.02160
C563        C  0.73810025  0.75234021  0.08323222     0.07770
C564        C  0.71899508  0.72476025  0.10191085    -0.02360
Br565      Br  0.69726610  0.72955541  0.15802038    -0.00910
Br566      Br  0.68246118  0.65907195  0.10206592    -0.00980
Br567      Br  0.77776688  0.78624742  0.01464822    -0.00940
Br568      Br  0.79361233  0.70926031  0.97902590    -0.00920
C569        C  0.52862144  0.01234234  0.09317033    -0.02050
C570        C  0.99584653  0.00475198  0.11701226     0.07670
C571        C  0.96333595  0.02532248  0.11352558    -0.02160
C572        C  0.96311514  0.05263863  0.08507150    -0.02160
C573        C  0.99586733  0.06014442  0.06110060     0.07770
C574        C  0.52877313  0.04013859  0.06558445    -0.02360
Br575      Br  0.57485441  0.05170453  0.03552196    -0.00910
Br576      Br  0.57436354  0.98599312  0.10039373    -0.00980
Br577      Br  0.91741923  0.07900326  0.07769329    -0.00940
Br578      Br  0.91869301  0.01571713  0.14686686    -0.00920
C579        C  0.62589248  0.87011682  0.19903972    -0.02050
C580        C  0.60119557  0.88070114  0.16554756     0.07630
C581        C  0.61229205  0.87722204  0.12261158    -0.02160
C582        C  0.64797606  0.86329667  0.11322166    -0.02160
C583        C  0.67213941  0.85170829  0.14659234     0.07770
C584        C  0.66112339  0.85529689  0.18955542    -0.02360
Br585      Br  0.69328179  0.83826231  0.23536682    -0.00910
Br586      Br  0.61037251  0.87374563  0.25785778    -0.00980
Br587      Br  0.66434849  0.86103293  0.05461987    -0.00940
Br588      Br  0.57911255  0.89220086  0.07647416    -0.00920
C589        C  0.86401793  0.89217660  0.13582556    -0.02050
C590        C  0.88987798  0.87601218  0.16393806     0.07630
C591        C  0.87894715  0.84537499  0.18324677    -0.02160
C592        C  0.84170356  0.83183371  0.17601557    -0.02160
C593        C  0.81582374  0.84799369  0.14786364     0.07770
C594        C  0.82722781  0.87802704  0.12743310    -0.02360
Br595      Br  0.79331983  0.89894973  0.08611426    -0.00910
Br596      Br  0.87994051  0.93238187  0.10613654    -0.00980
Br597      Br  0.82565797  0.79180525  0.20612983    -0.00940
Br598      Br  0.91455503  0.82198171  0.22021043    -0.00920
C599        C  0.57376682  0.64176486  0.64181049    -0.02050
C600        C  0.56704474  0.67478394  0.65735893     0.07630
C601        C  0.59491234  0.69082225  0.68470820    -0.02160
C602        C  0.63099756  0.67614402  0.69148729    -0.02160
C603        C  0.63801478  0.64362102  0.67473838     0.07770
C604        C  0.60810771  0.62551057  0.65289309    -0.02360
Br605      Br  0.61328232  0.57829704  0.63884364    -0.00910
Br606      Br  0.53743930  0.61907523  0.60326144    -0.00980
Br607      Br  0.66986358  0.69967570  0.72634725    -0.00940
Br608      Br  0.58252600  0.73114036  0.71630291    -0.00920
C609        C  0.89904343  0.69596322  0.68552330    -0.02050
C610        C  0.92330107  0.68139915  0.65513492     0.07630
C611        C  0.91045718  0.65252922  0.63134005    -0.02160
C612        C  0.87480348  0.63711406  0.63972794    -0.02160
C613        C  0.85073959  0.65153523  0.67023103     0.07770
C614        C  0.86252033  0.68140004  0.69246795    -0.02360
Br615      Br  0.82899074  0.70186013  0.73318656    -0.00910
Br616      Br  0.91610524  0.73550548  0.71814023    -0.00980
Br617      Br  0.85802694  0.59704556  0.60782961    -0.00940
Br618      Br  0.94003225  0.63555912  0.58469915    -0.00920
C619        C  0.95279981  0.00720982  0.59611472    -0.02050
C620        C  0.98716868  0.01972923  0.61561211     0.07630
C621        C  0.52205946  0.00374380  0.60766928    -0.02160
C622        C  0.52259670  0.97513429  0.58042806    -0.02160
C623        C  0.98811672  0.96206972  0.56159388     0.07770
C624        C  0.95326879  0.97839801  0.56903833    -0.02360
Br625      Br  0.90644619  0.96154055  0.54150946    -0.00910
Br626      Br  0.90540593  0.03009868  0.60584665    -0.00980
Br627      Br  0.57082543  0.95476413  0.56738928    -0.00940
Br628      Br  0.56910398  0.02102017  0.63450977    -0.00920
C629        C  0.52588078  0.92712996  0.39576355    -0.02050
C630        C  0.99487530  0.91049054  0.41533512     0.07630
C631        C  0.96354868  0.89815074  0.38987080    -0.02160
C632        C  0.96424976  0.90040254  0.34502242    -0.02160
C633        C  0.99555814  0.91640768  0.32533996     0.07770
C634        C  0.52597874  0.93048453  0.35087767    -0.02360
Br635      Br  0.56857600  0.95321150  0.32443025    -0.00910
Br636      Br  0.56861321  0.94476772  0.43032710    -0.00980
Br637      Br  0.92102988  0.88315970  0.31085692    -0.00940
Br638      Br  0.91820659  0.88051865  0.41645161    -0.00920
C639        C  0.97647997  0.77727330  0.55151819    -0.02050
C640        C  0.00097425  0.77315642  0.58782809     0.07630
C641        C  0.52537011  0.80052972  0.60123925    -0.02160
C642        C  0.52579195  0.83090831  0.57821468    -0.02160
C643        C  0.99825073  0.83627212  0.54516083     0.07770
C644        C  0.97324212  0.80919143  0.53233580    -0.02360
Br645      Br  0.93202945  0.81584168  0.49127193    -0.00910
Br646      Br  0.94837827  0.73893846  0.52630622    -0.00980
Br647      Br  0.56559880  0.86444340  0.59113119    -0.00940
Br648      Br  0.55605623  0.79855673  0.65323307    -0.00920
loop_ 
_geom_bond_atom_site_label_1 
_geom_bond_atom_site_label_2 
_geom_bond_distance 
_geom_bond_site_symmetry_2 
_ccdc_geom_bond_type 
C1            C2   1.407       .  A
C1            C6   1.401       .  A
C1          C306   1.483       .  S
C2          C327   1.408       .  A
C2            H7   1.084       .  S
C3            C4   1.408       .  A
C3          C326   1.408       .  A
C3          C643   1.496       .  S
C4            C5   1.403       .  A
C4            H8   1.083       .  S
C5          C330   1.399       .  A
C5          C623   1.480       .  S
C6          C329   1.399       .  A
C6            H9   1.084       .  S
C10          C11   1.402       .  A
C10          C15   1.404       .  A
C10         C286   1.485       .  S
C11          C12   1.407       .  A
C11          H16   1.083       .  S
C12         C337   1.409       .  A
C12         C316   1.498       .  S
C13          C14   1.409       .  A
C13         C336   1.409   1_455  A
C13          H17   1.084       .  S
C14         C339   1.405   1_455  A
C14         C276   1.489       .  S
C15         C338   1.405       .  A
C15          H18   1.084       .  S
In19         O30   2.236       .  S
In19         O24   2.250       .  S
In19         O26   2.251       .  S
In19         O27   2.245       .  S
In19         O28   2.236       .  S
In19         O31   2.238       .  S
In19        O345   2.242       .  S
In19        O346   2.239       .  S
C20         C246   1.474   1_565  S
C20          O26   1.261       .  A
C20          O28   1.259       .  A
O21        In343   2.242   1_455  S
O21          C29   1.261       .  A
O22        In343   2.239   1_455  S
O22          C29   1.261       .  A
C23         C309   1.477       .  S
C23          O30   1.259       .  A
C23          O24   1.261       .  A
C25         C266   1.474       .  S
C25          O27   1.260       .  A
C25          O31   1.260       .  A
C29         C256   1.474       .  S
C32          C33   1.403       .  A
C32          C37   1.401       .  A
C32         C269   1.479       .  S
C33          C34   1.403       .  A
C33          H38   1.085       .  S
C34          C35   1.403       .  A
C34         C259   1.479       .  S
C35          C36   1.402       .  A
C35          H39   1.082       .  S
C36          C37   1.401       .  A
C36         C239   1.482       .  S
C37          H40   1.085       .  S
C41          C42   1.405       .  A
C41          C46   1.397       .  A
C41         C226   1.476       .  S
C42          C43   1.409   1_556  A
C42          H47   1.083       .  S
C43          C44   1.410       .  A
C43         C236   1.501       .  S
C44          C45   1.404       .  A
C44          H48   1.082       .  S
C45          C46   1.397   1_554  A
C45         C216   1.477       .  S
C46          H49   1.085       .  S
In50         O52   2.249       .  S
In50         O53   2.244       .  S
In50         O61   2.231       .  S
In50         O55   2.249       .  S
In50         O57   2.246       .  S
In50         O58   2.251       .  S
In50         O59   2.250       .  S
In50         O62   2.241       .  S
C51         C206   1.482       .  S
C51          O57   1.261       .  A
C51          O59   1.261       .  A
O52          C60   1.259       .  A
O53          C60   1.262       .  A
C54         C229   1.472       .  S
C54          O61   1.258       .  A
C54          O55   1.261       .  A
C56         C289   1.475       .  S
C56          O58   1.262       .  A
C56          O62   1.260       .  A
C60         C279   1.479       .  S
C63          C64   1.402       .  A
C63          C68   1.403       .  A
C63         C186   1.480       .  S
C64          C65   1.406       .  A
C64          H69   1.083       .  S
C65          C66   1.407       .  A
C65         C196   1.494       .  S
C66          C67   1.402       .  A
C66          H70   1.084       .  S
C67          C68   1.405       .  A
C67         C179   1.483       .  S
C68          H71   1.084       .  S
C72          C73   1.406       .  A
C72          C77   1.405       .  A
C72         C166   1.492       .  S
C73          C74   1.405       .  A
C73          H78   1.084       .  S
C74          C75   1.404       .  A
C74         C209   1.485       .  S
C75          C76   1.407       .  A
C75          H79   1.083       .  S
C76          C77   1.404       .  A
C76         C199   1.492       .  S
C77          H80   1.083       .  S
In81         O83   2.241       .  S
In81         O84   2.234       .  S
In81         O92   2.248       .  S
In81         O86   2.248       .  S
In81         O88   2.244       .  S
In81         O89   2.244       .  S
In81         O90   2.232       .  S
In81         O93   2.234       .  S
C82         C219   1.469       .  S
C82          O88   1.262       .  A
C82          O90   1.259       .  A
O83          C91   1.261       .  A
O84          C91   1.262       .  A
C85         C169   1.481       .  S
C85          O92   1.260       .  A
C85          O86   1.262       .  A
C87         C159   1.474       .  S
C87          O89   1.261       .  A
C87          O93   1.259       .  A
C91         C146   1.475       .  S
C94          C99   1.405       .  A
C94         C419   1.405   1_455  A
C94         C156   1.491       .  S
C95          C96   1.403       .  A
C95         C418   1.405       .  A
C95         H100   1.084       .  S
C96          C97   1.404       .  A
C96         C149   1.481       .  S
C97          C98   1.406       .  A
C97         H101   1.083       .  S
C98         C423   1.404       .  A
C98         C139   1.491       .  S
C99         C422   1.404   1_455  A
C99         H102   1.083       .  S
C103        C104   1.400       .  A
C103        C108   1.404       .  A
C103        C129   1.479       .  S
C104        C105   1.402   1_556  A
C104        H109   1.084       .  S
C105        C106   1.402       .  A
C105        C249   1.480       .  S
C106        C107   1.405       .  A
C106        H110   1.083       .  S
C107        C108   1.409   1_554  A
C107        C136   1.495       .  S
C108        H111   1.084       .  S
In112       O114   2.246       .  S
In112       O115   2.261       .  S
In112       O123   2.246       .  S
In112       O117   2.257       .  S
In112       O119   2.255       .  S
In112       O121   2.240       .  S
In112       O444   2.259       .  S
In112       O448   2.243       .  S
C113        C296   1.471       .  S
C113        O119   1.261       .  A
C113        O121   1.258       .  A
O114        C122   1.260       .  A
O115        C122   1.261       .  A
C116        C126   1.478       .  S
C116        O123   1.260       .  A
C116        O117   1.261       .  A
C118        C189   1.473       .  S
C118        O120   1.262       .  A
C118        O124   1.258       .  A
O120       In436   2.259   1_455  S
C122        C176   1.479       .  S
O124       In436   2.243   1_455  S
C125        C126   1.409       .  A
C125        C130   1.406       .  A
C125       Br132   1.926       .  S
C126        C451   1.411       .  A
C127        C128   1.410       .  A
C127        C450   1.411   1_455  A
C127       Br134   1.928       .  S
C128        C453   1.409       .  A
C128       Br133   1.927       .  S
C129        C130   1.408       .  A
C129        C452   1.409       .  A
C130       Br131   1.930       .  S
C135        C140   1.410       .  A
C135        C460   1.417       .  A
C135       Br142   1.934       .  S
C136        C137   1.415       .  A
C136        C459   1.417       .  A
C137        C138   1.406       .  A
C137       Br144   1.932   1_554  S
C138        C139   1.412       .  A
C138       Br143   1.929       .  S
C139        C464   1.413       .  A
C140        C463   1.413   1_455  A
C140       Br141   1.933       .  S
C145        C146   1.408       .  A
C145        C150   1.403       .  A
C145       Br152   1.925       .  S
C146        C147   1.411       .  A
C147        C148   1.408       .  A
C147       Br154   1.931       .  S
C148        C149   1.410       .  A
C148       Br153   1.925       .  S
C149        C150   1.408       .  A
C150       Br151   1.925       .  S
C155        C156   1.415       .  A
C155        C160   1.408       .  A
C155       Br162   1.933       .  S
C156        C157   1.417       .  A
C157        C158   1.406       .  A
C157       Br164   1.926       .  S
C158        C159   1.408       .  A
C158       Br163   1.935       .  S
C159        C160   1.409       .  A
C160       Br161   1.931       .  S
C165        C166   1.414       .  A
C165        C170   1.407       .  A
C165       Br172   1.934       .  S
C166        C167   1.415       .  A
C167        C168   1.408       .  A
C167       Br174   1.925       .  S
C168        C169   1.409       .  A
C168       Br173   1.933       .  S
C169        C170   1.411       .  A
C170       Br171   1.925       .  S
C175        C176   1.409       .  A
C175        C180   1.406       .  A
C175       Br182   1.927       .  S
C176        C177   1.411       .  A
C177        C178   1.412       .  A
C177       Br184   1.929       .  S
C178        C179   1.410       .  A
C178       Br183   1.928       .  S
C179        C180   1.410       .  A
C180       Br181   1.932       .  S
C185        C186   1.409       .  A
C185        C190   1.410       .  A
C185       Br192   1.927       .  S
C186        C187   1.409       .  A
C187        C188   1.407       .  A
C187       Br194   1.930       .  S
C188        C189   1.408       .  A
C188       Br193   1.930       .  S
C189        C190   1.408       .  A
C190       Br191   1.927       .  S
C195        C196   1.417       .  A
C195        C200   1.410       .  A
C195       Br202   1.933       .  S
C196        C197   1.415       .  A
C197        C198   1.406       .  A
C197       Br204   1.936       .  S
C198        C199   1.412       .  A
C198       Br203   1.928       .  S
C199        C200   1.413       .  A
C200       Br201   1.933       .  S
C205        C206   1.412       .  A
C205        C210   1.410       .  A
C205       Br212   1.930       .  S
C206        C207   1.410       .  A
C207        C208   1.405       .  A
C207       Br214   1.923       .  S
C208        C209   1.408       .  A
C208       Br213   1.926       .  S
C209        C210   1.411       .  A
C210       Br211   1.925       .  S
C215        C216   1.409       .  A
C215        C220   1.408       .  A
C215       Br222   1.929       .  S
C216        C217   1.410       .  A
C217        C218   1.404       .  A
C217       Br224   1.928       .  S
C218        C219   1.407       .  A
C218       Br223   1.932       .  S
C219        C220   1.410       .  A
C220       Br221   1.930       .  S
C225        C226   1.408       .  A
C225        C230   1.408       .  A
C225       Br232   1.929       .  S
C226        C227   1.409       .  A
C227        C228   1.404       .  A
C227       Br234   1.929       .  S
C228        C229   1.408       .  A
C228       Br233   1.932       .  S
C229        C230   1.411       .  A
C230       Br231   1.930       .  S
C235        C236   1.420       .  A
C235        C240   1.407       .  A
C235       Br242   1.929       .  S
C236        C237   1.421       .  A
C237        C238   1.407       .  A
C237       Br244   1.929   1_554  S
C238        C239   1.408       .  A
C238       Br243   1.936       .  S
C239        C240   1.408       .  A
C240       Br241   1.935       .  S
C245        C250   1.406       .  A
C245        C570   1.409   1_455  A
C245       Br252   1.931   1_545  S
C246        C247   1.410       .  A
C246        C569   1.409       .  A
C247        C248   1.408       .  A
C247       Br254   1.929       .  S
C248        C249   1.410       .  A
C248       Br253   1.931       .  S
C249        C574   1.411       .  A
C250        C573   1.411   1_455  A
C250       Br251   1.932       .  S
C255        C256   1.410       .  A
C255        C260   1.407       .  A
C255       Br262   1.932       .  S
C256        C257   1.410       .  A
C257        C258   1.406       .  A
C257       Br264   1.931       .  S
C258        C259   1.410       .  A
C258       Br263   1.932       .  S
C259        C260   1.411       .  A
C260       Br261   1.931       .  S
C265        C266   1.410       .  A
C265        C270   1.406       .  A
C265       Br272   1.931       .  S
C266        C267   1.411       .  A
C267        C268   1.406       .  A
C267       Br274   1.931       .  S
C268        C269   1.411       .  A
C268       Br273   1.933       .  S
C269        C270   1.411       .  A
C270       Br271   1.932       .  S
C275        C276   1.412       .  A
C275        C280   1.407       .  A
C275       Br282   1.924       .  S
C276        C277   1.412       .  A
C277        C278   1.408       .  A
C277       Br284   1.924       .  S
C278        C279   1.409       .  A
C278       Br283   1.932       .  S
C279        C280   1.409       .  A
C280       Br281   1.924       .  S
C285        C286   1.411       .  A
C285        C290   1.410       .  A
C285       Br292   1.929       .  S
C286        C287   1.412       .  A
C287        C288   1.406       .  A
C287       Br294   1.926       .  S
C288        C289   1.407       .  A
C288       Br293   1.932       .  S
C289        C290   1.410       .  A
C290       Br291   1.929       .  S
C295        C296   1.408       .  A
C295        C300   1.409   1_545  A
C295       Br302   1.928       .  S
C296        C621   1.407       .  A
C297        C298   1.406   1_545  A
C297        C620   1.407   1_455  A
C297       Br304   1.931       .  S
C298        C623   1.410   1_455  A
C298       Br303   1.928       .  S
C299        C300   1.409       .  A
C299        C622   1.410       .  A
C299        C329   1.480       .  S
C300       Br301   1.928       .  S
C305        C310   1.410       .  A
C305        C630   1.412   1_455  A
C305       Br312   1.930       .  S
C306        C307   1.409       .  A
C306        C629   1.412       .  A
C307        C308   1.405       .  A
C307       Br314   1.927       .  S
C308        C309   1.410       .  A
C308       Br313   1.931       .  S
C309        C634   1.411       .  A
C310        C633   1.411   1_455  A
C310       Br311   1.931       .  S
C315        C316   1.415       .  A
C315        C320   1.409       .  A
C315       Br322   1.935       .  S
C316        C641   1.415       .  A
C317        C318   1.408       .  A
C317        C640   1.415       .  A
C317       Br324   1.924       .  S
C318        C643   1.412   1_455  A
C318       Br323   1.931       .  S
C319        C320   1.414       .  A
C319        C642   1.412       .  A
C319        C327   1.496       .  S
C320       Br321   1.925       .  S
C325        C326   1.407       .  A
C325        C330   1.401       .  A
C325        C630   1.483       .  S
C326        H331   1.084   1_655  S
C327        C328   1.408       .  A
C328        C329   1.403       .  A
C328        H332   1.083       .  S
C330        H333   1.084       .  S
C334        C335   1.402       .  A
C334        C339   1.404       .  A
C334        C610   1.485       .  S
C335        C336   1.407       .  A
C335        H340   1.083       .  S
C336        C640   1.498   1_655  S
C337        C338   1.409       .  A
C337        H341   1.084       .  S
C338        C600   1.489       .  S
C339        H342   1.084       .  S
In343       O354   2.236       .  S
In343       O348   2.250   1_655  S
In343       O350   2.251       .  S
In343       O351   2.245       .  S
In343       O352   2.236   1_655  S
In343       O355   2.238       .  S
C344        C570   1.474   1_565  S
C344        O350   1.261       .  A
C344        O352   1.259   1_655  A
O345        C353   1.261       .  A
O346        C353   1.261       .  A
C347        C633   1.477       .  S
C347        O354   1.259       .  A
C347        O348   1.261   1_655  A
C349        C590   1.474       .  S
C349        O351   1.260       .  A
C349        O355   1.260       .  A
C353        C580   1.474       .  S
C356        C357   1.403       .  A
C356        C361   1.401       .  A
C356        C593   1.479       .  S
C357        C358   1.403       .  A
C357        H362   1.085       .  S
C358        C359   1.403       .  A
C358        C583   1.479       .  S
C359        C360   1.402       .  A
C359        H363   1.082       .  S
C360        C361   1.401       .  A
C360        C563   1.482       .  S
C361        H364   1.085       .  S
C365        C366   1.405       .  A
C365        C370   1.397       .  A
C365        C550   1.476       .  S
C366        C367   1.409   1_556  A
C366        H371   1.083       .  S
C367        C368   1.410       .  A
C367        C560   1.501       .  S
C368        C369   1.404       .  A
C368        H372   1.082       .  S
C369        C370   1.397   1_554  A
C369        C540   1.477       .  S
C370        H373   1.085       .  S
In374       O376   2.249       .  S
In374       O377   2.244       .  S
In374       O385   2.231       .  S
In374       O379   2.249       .  S
In374       O381   2.246       .  S
In374       O382   2.251       .  S
In374       O383   2.250       .  S
In374       O386   2.241       .  S
C375        C530   1.482       .  S
C375        O381   1.261       .  A
C375        O383   1.261       .  A
O376        C384   1.259       .  A
O377        C384   1.262       .  A
C378        C553   1.472       .  S
C378        O385   1.258       .  A
C378        O379   1.261       .  A
C380        C613   1.475       .  S
C380        O382   1.262       .  A
C380        O386   1.260       .  A
C384        C603   1.479       .  S
C387        C388   1.402       .  A
C387        C392   1.403       .  A
C387        C510   1.480       .  S
C388        C389   1.406       .  A
C388        H393   1.083       .  S
C389        C390   1.407       .  A
C389        C520   1.494       .  S
C390        C391   1.402       .  A
C390        H394   1.084       .  S
C391        C392   1.405       .  A
C391        C503   1.483       .  S
C392        H395   1.084       .  S
C396        C397   1.406       .  A
C396        C401   1.405       .  A
C396        C490   1.492       .  S
C397        C398   1.405       .  A
C397        H402   1.084       .  S
C398        C399   1.404       .  A
C398        C533   1.485       .  S
C399        C400   1.407       .  A
C399        H403   1.083       .  S
C400        C401   1.404       .  A
C400        C523   1.492       .  S
C401        H404   1.083       .  S
In405       O407   2.241       .  S
In405       O408   2.234       .  S
In405       O416   2.248       .  S
In405       O410   2.248       .  S
In405       O412   2.244       .  S
In405       O413   2.244       .  S
In405       O414   2.232       .  S
In405       O417   2.234       .  S
C406        C543   1.469       .  S
C406        O412   1.262       .  A
C406        O414   1.259       .  A
O407        C415   1.261       .  A
O408        C415   1.262       .  A
C409        C493   1.481       .  S
C409        O416   1.260       .  A
C409        O410   1.262       .  A
C411        C483   1.474       .  S
C411        O413   1.261       .  A
C411        O417   1.259       .  A
C415        C470   1.475       .  S
C418        C423   1.405       .  A
C418        C480   1.491       .  S
C419        C420   1.403       .  A
C419        H424   1.084       .  S
C420        C421   1.404       .  A
C420        C473   1.481       .  S
C421        C422   1.406       .  A
C421        H425   1.083       .  S
C422        C463   1.491       .  S
C423        H426   1.083       .  S
C427        C428   1.400   1_455  A
C427        C432   1.404       .  A
C427        C453   1.479       .  S
C428        C429   1.402   1_556  A
C428        H433   1.084       .  S
C429        C430   1.402       .  A
C429        C573   1.480       .  S
C430        C431   1.405   1_655  A
C430        H434   1.083       .  S
C431        C432   1.409   1_554  A
C431        C460   1.495       .  S
C432        H435   1.084       .  S
In436       O438   2.246       .  S
In436       O439   2.261       .  S
In436       O447   2.246       .  S
In436       O441   2.257   1_655  S
In436       O443   2.255       .  S
In436       O445   2.240       .  S
C437        C620   1.471       .  S
C437        O443   1.261       .  A
C437        O445   1.258       .  A
O438        C446   1.260       .  A
O439        C446   1.261       .  A
C440        C450   1.478       .  S
C440        O447   1.260       .  A
C440        O441   1.261   1_655  A
C442        C513   1.473       .  S
C442        O444   1.262       .  A
C442        O448   1.258       .  A
C446        C500   1.479       .  S
C449        C450   1.409       .  A
C449        C454   1.406       .  A
C449       Br456   1.926       .  S
C451        C452   1.410       .  A
C451       Br458   1.928       .  S
C452       Br457   1.927       .  S
C453        C454   1.408   1_455  A
C454       Br455   1.930       .  S
C459        C464   1.410       .  A
C459       Br466   1.934       .  S
C460        C461   1.415   1_455  A
C461        C462   1.406       .  A
C461       Br468   1.932   1_554  S
C462        C463   1.412       .  A
C462       Br467   1.929       .  S
C464       Br465   1.933       .  S
C469        C470   1.408       .  A
C469        C474   1.403       .  A
C469       Br476   1.925       .  S
C470        C471   1.411       .  A
C471        C472   1.408       .  A
C471       Br478   1.931       .  S
C472        C473   1.410       .  A
C472       Br477   1.925       .  S
C473        C474   1.408       .  A
C474       Br475   1.925       .  S
C479        C480   1.415       .  A
C479        C484   1.408       .  A
C479       Br486   1.933       .  S
C480        C481   1.417       .  A
C481        C482   1.406       .  A
C481       Br488   1.926       .  S
C482        C483   1.408       .  A
C482       Br487   1.935       .  S
C483        C484   1.409       .  A
C484       Br485   1.931       .  S
C489        C490   1.414       .  A
C489        C494   1.407       .  A
C489       Br496   1.934       .  S
C490        C491   1.415       .  A
C491        C492   1.408       .  A
C491       Br498   1.925       .  S
C492        C493   1.409       .  A
C492       Br497   1.933       .  S
C493        C494   1.411       .  A
C494       Br495   1.925       .  S
C499        C500   1.409       .  A
C499        C504   1.406       .  A
C499       Br506   1.927       .  S
C500        C501   1.411       .  A
C501        C502   1.412       .  A
C501       Br508   1.929       .  S
C502        C503   1.410       .  A
C502       Br507   1.928       .  S
C503        C504   1.410       .  A
C504       Br505   1.932       .  S
C509        C510   1.409       .  A
C509        C514   1.410       .  A
C509       Br516   1.927       .  S
C510        C511   1.409       .  A
C511        C512   1.407       .  A
C511       Br518   1.930       .  S
C512        C513   1.408       .  A
C512       Br517   1.930       .  S
C513        C514   1.408       .  A
C514       Br515   1.927       .  S
C519        C520   1.417       .  A
C519        C524   1.410       .  A
C519       Br526   1.933       .  S
C520        C521   1.415       .  A
C521        C522   1.406       .  A
C521       Br528   1.936       .  S
C522        C523   1.412       .  A
C522       Br527   1.928       .  S
C523        C524   1.413       .  A
C524       Br525   1.933       .  S
C529        C530   1.412       .  A
C529        C534   1.410       .  A
C529       Br536   1.930       .  S
C530        C531   1.410       .  A
C531        C532   1.405       .  A
C531       Br538   1.923       .  S
C532        C533   1.408       .  A
C532       Br537   1.926       .  S
C533        C534   1.411       .  A
C534       Br535   1.925       .  S
C539        C540   1.409       .  A
C539        C544   1.408       .  A
C539       Br546   1.929       .  S
C540        C541   1.410       .  A
C541        C542   1.404       .  A
C541       Br548   1.928       .  S
C542        C543   1.407       .  A
C542       Br547   1.932       .  S
C543        C544   1.410       .  A
C544       Br545   1.930       .  S
C549        C550   1.408       .  A
C549        C554   1.408       .  A
C549       Br556   1.929       .  S
C550        C551   1.409       .  A
C551        C552   1.404       .  A
C551       Br558   1.929       .  S
C552        C553   1.408       .  A
C552       Br557   1.932       .  S
C553        C554   1.411       .  A
C554       Br555   1.930       .  S
C559        C560   1.420       .  A
C559        C564   1.407       .  A
C559       Br566   1.929       .  S
C560        C561   1.421       .  A
C561        C562   1.407       .  A
C561       Br568   1.929   1_554  S
C562        C563   1.408       .  A
C562       Br567   1.936       .  S
C563        C564   1.408       .  A
C564       Br565   1.935       .  S
C569        C574   1.406       .  A
C569       Br576   1.931   1_545  S
C570        C571   1.410       .  A
C571        C572   1.408       .  A
C571       Br578   1.929       .  S
C572        C573   1.410       .  A
C572       Br577   1.931       .  S
C574       Br575   1.932       .  S
C579        C580   1.410       .  A
C579        C584   1.407       .  A
C579       Br586   1.932       .  S
C580        C581   1.410       .  A
C581        C582   1.406       .  A
C581       Br588   1.931       .  S
C582        C583   1.410       .  A
C582       Br587   1.932       .  S
C583        C584   1.411       .  A
C584       Br585   1.931       .  S
C589        C590   1.410       .  A
C589        C594   1.406       .  A
C589       Br596   1.931       .  S
C590        C591   1.411       .  A
C591        C592   1.406       .  A
C591       Br598   1.931       .  S
C592        C593   1.411       .  A
C592       Br597   1.933       .  S
C593        C594   1.411       .  A
C594       Br595   1.932       .  S
C599        C600   1.412       .  A
C599        C604   1.407       .  A
C599       Br606   1.924       .  S
C600        C601   1.412       .  A
C601        C602   1.408       .  A
C601       Br608   1.924       .  S
C602        C603   1.409       .  A
C602       Br607   1.932       .  S
C603        C604   1.409       .  A
C604       Br605   1.924       .  S
C609        C610   1.411       .  A
C609        C614   1.410       .  A
C609       Br616   1.929       .  S
C610        C611   1.412       .  A
C611        C612   1.406       .  A
C611       Br618   1.926       .  S
C612        C613   1.407       .  A
C612       Br617   1.932       .  S
C613        C614   1.410       .  A
C614       Br615   1.929       .  S
C619        C620   1.408       .  A
C619        C624   1.409   1_545  A
C619       Br626   1.928       .  S
C621        C622   1.406   1_545  A
C621       Br628   1.931       .  S
C622       Br627   1.928       .  S
C623        C624   1.409       .  A
C624       Br625   1.928       .  S
C629        C634   1.410       .  A
C629       Br636   1.930       .  S
C630        C631   1.409       .  A
C631        C632   1.405       .  A
C631       Br638   1.927       .  S
C632        C633   1.410       .  A
C632       Br637   1.931       .  S
C634       Br635   1.931       .  S
C639        C640   1.415   1_655  A
C639        C644   1.409       .  A
C639       Br646   1.935       .  S
C641        C642   1.408       .  A
C641       Br648   1.924       .  S
C642       Br647   1.931       .  S
C643        C644   1.414       .  A
C644       Br645   1.925       .  S
