geometry optimzed in LAMMPS
_audit_creation_date              2020-12-01 
_audit_creation_method            'lammps2cif' 
_symmetry_space_group_name_H-M    'P1' 
_symmetry_Int_Tables_number       1 
_symmetry_cell_setting            triclinic 
loop_ 
_symmetry_equiv_pos_as_xyz 
  x,y,z 
_cell_length_a                    40.12562019 
_cell_length_b                    40.13646312064262 
_cell_length_c                    91.93255900033422 
_cell_angle_alpha                 90.04270845645316 
_cell_angle_beta                  89.9877571182672 
_cell_angle_gamma                 120.1598223582479 
loop_ 
_atom_site_label 
_atom_site_type_symbol 
_atom_site_fract_x 
_atom_site_fract_y 
_atom_site_fract_z 
_atom_site_charge 
C1          C  0.01478350  0.03672671  0.87756123     0.81300
N2          N  0.97624723  0.01144113  0.87737402    -0.77000
C3          C  0.96278820  0.97290883  0.87756001     0.83700
N4          N  0.98799788  0.95966379  0.87768430    -0.77000
C5          C  0.02657752  0.98487945  0.87787572     0.83800
N6          N  0.03991363  0.02339838  0.87768419    -0.78700
N7          N  0.20152579  0.87910073  0.82550695    -0.26200
N8          N  0.16665759  0.87488203  0.82503366    -0.34100
C9          C  0.14790228  0.85388384  0.81323877     0.02100
C10         C  0.17198265  0.84426467  0.80587470     0.08200
C11         C  0.20579283  0.86079175  0.81396287    -0.00100
H12         H  0.11872838  0.84596692  0.81031554     0.08800
H13         H  0.23143804  0.85925308  0.81171843     0.10000
Cu14       Cu  0.14568632  0.89723666  0.84060785     0.44200
Cu15       Cu  0.24086990  0.90858544  0.84231455     0.42000
Cu16       Cu  0.20316755  0.93843707  0.87288428     0.43900
N17         N  0.13051001  0.92204650  0.85727743    -0.33600
N18         N  0.15141596  0.93720280  0.86914552    -0.27900
C19         C  0.13435153  0.95207474  0.87744975    -0.04000
C20         C  0.10114635  0.94568935  0.87045787     0.08300
C21         C  0.09961570  0.92674315  0.85772816     0.02100
H22         H  0.14571951  0.96709101  0.88765670     0.09700
H23         H  0.07806451  0.91773589  0.84924542     0.08800
N24         N  0.25690349  0.94242386  0.87280985    -0.35000
N25         N  0.27153162  0.93354021  0.86153997    -0.27200
C26         C  0.30809678  0.94310683  0.86472758    -0.02500
C27         C  0.31638194  0.95772015  0.87875080     0.06100
C28         C  0.28334737  0.95691327  0.88351369     0.04200
H29         H  0.32728984  0.93973707  0.85736953     0.09300
H30         H  0.27942604  0.96779152  0.89377049     0.08200
N31         N  0.11973991  0.31871775  0.82544043    -0.26200
N32         N  0.12297256  0.28757129  0.82453573    -0.34100
C33         C  0.14358143  0.29005615  0.81260290     0.02100
C34         C  0.15399107  0.32445703  0.80560668     0.08200
C35         C  0.13834219  0.34189788  0.81405837    -0.04900
H36         H  0.15072389  0.26849719  0.80934119     0.08800
H37         H  0.14059809  0.36954070  0.81215114     0.10000
Cu38       Cu  0.09999736  0.24341280  0.83980720     0.44200
Cu39       Cu  0.09092575  0.32808314  0.84257017     0.42000
Cu40       Cu  0.06320632  0.26040487  0.87312380     0.43900
N41         N  0.07653042  0.20343017  0.85657192    -0.33600
N42         N  0.06325814  0.20958529  0.86885262    -0.27900
C43         C  0.04908097  0.17770521  0.87717849    -0.04000
C44         C  0.05390853  0.15046757  0.86976075     0.08300
C45         C  0.07124095  0.16758002  0.85676514     0.02100
H46         H  0.03555526  0.17437974  0.88769790     0.09700
H47         H  0.07883936  0.15470828  0.84796423     0.08800
N48         N  0.05787841  0.30928581  0.87318461    -0.35000
N49         N  0.06590318  0.33268333  0.86192428    -0.27200
C50         C  0.05530015  0.35880649  0.86517649    -0.02500
C51         C  0.04090838  0.35205729  0.87922318     0.06100
C52         C  0.04291043  0.32047384  0.88394886     0.04200
H53         H  0.05778406  0.38104797  0.85783684     0.09300
H54         H  0.03246208  0.30550531  0.89420265     0.08200
N55         N  0.67899902  0.79831041  0.82614688    -0.26200
N56         N  0.70980220  0.83316970  0.82566378    -0.34100
C57         C  0.70779824  0.85174395  0.81380173     0.02100
C58         C  0.67412742  0.82753147  0.80639158     0.08200
C59         C  0.65656414  0.79384454  0.81453278    -0.04900
H60         H  0.72930830  0.88081282  0.81082097     0.08800
H61         H  0.62937216  0.76810452  0.81224535     0.10000
Cu62       Cu  0.75335301  0.85427273  0.84117771     0.44200
Cu63       Cu  0.66911906  0.75926152  0.84299170     0.42000
Cu64       Cu  0.73793770  0.79829270  0.87346741     0.43900
N65         N  0.79440787  0.86992524  0.85748508    -0.33600
N66         N  0.78887442  0.84949859  0.86944726    -0.27900
C67         C  0.82133287  0.86646478  0.87750342    -0.04000
C68         C  0.84831940  0.89910093  0.87023456     0.08300
C69         C  0.83042507  0.90041644  0.85760614     0.02100
H70         H  0.82523895  0.85534896  0.88770770     0.09700
H71         H  0.84291062  0.92150194  0.84897087     0.08800
N72         N  0.68836151  0.74433720  0.87341958    -0.35000
N73         N  0.66451863  0.72929626  0.86223846    -0.27200
C74         C  0.63784692  0.69264560  0.86551165    -0.02500
C75         C  0.64475076  0.68475062  0.87949018     0.06100
C76         C  0.67695352  0.71806226  0.88414422     0.04200
H77         H  0.61510248  0.67314887  0.85824560     0.09300
H78         H  0.69210603  0.72232791  0.89433979     0.08200
C79         C  0.31963727  0.62797060  0.72055024     0.81300
N80         N  0.29484816  0.64171403  0.72040532    -0.77000
C81         C  0.30858303  0.68031081  0.72034274     0.83700
N82         N  0.34723513  0.70519221  0.72069009    -0.77000
C83         C  0.37211759  0.69153834  0.72083493     0.83800
N84         N  0.35824368  0.65292442  0.72088968    -0.78700
N85         N  0.13324040  0.78544049  0.77297724    -0.26200
N86         N  0.16820197  0.78988305  0.77335773    -0.34100
C87         C  0.18714449  0.81116878  0.78507581     0.02100
C88         C  0.16307428  0.82073420  0.79248173     0.08200
C89         C  0.12909317  0.80389210  0.78449666    -0.04900
H90         H  0.21641418  0.81928165  0.78792587     0.08800
H91         H  0.10338304  0.80525603  0.78680711     0.10000
Cu92       Cu  0.18894896  0.76735452  0.75775750     0.44200
Cu93       Cu  0.09362279  0.75540924  0.75632655     0.42000
Cu94       Cu  0.13177057  0.72639295  0.72550007     0.43900
N95         N  0.20443124  0.74285416  0.74106356    -0.33600
N96         N  0.18365658  0.72783320  0.72915977    -0.27900
C97         C  0.20093027  0.71324533  0.72081660    -0.04000
C98         C  0.23413594  0.71966598  0.72782703     0.08300
C99         C  0.23543204  0.73833115  0.74060669     0.02100
H100        H  0.18969872  0.69837640  0.71057601     0.09700
H101        H  0.25691537  0.74728903  0.74911323     0.08800
N102        N  0.07781543  0.72191468  0.72576186    -0.35000
N103        N  0.06306608  0.73040848  0.73710157    -0.27200
C104        C  0.02641753  0.72060816  0.73396551    -0.02500
C105        C  0.01820486  0.70626990  0.71990712     0.06100
C106        C  0.05135601  0.70746679  0.71506446     0.04200
H107        H  0.00715249  0.72372177  0.74136956     0.09300
H108        H  0.05537833  0.69692242  0.70474693     0.08200
N109        N  0.21136085  0.34485865  0.77232530    -0.26200
N110        N  0.20839723  0.37616644  0.77321968    -0.34100
C111        C  0.18789459  0.37386798  0.78516936     0.02100
C112        C  0.17728622  0.33942470  0.79217525     0.08200
C113        C  0.19271145  0.32178699  0.78372054    -0.04900
H114        H  0.18098756  0.39558685  0.78844227     0.08800
H115        H  0.19029876  0.29408192  0.78564097     0.10000
Cu116      Cu  0.23173629  0.42036503  0.75794196     0.44200
Cu117      Cu  0.24005985  0.33504676  0.75527311     0.42000
Cu118      Cu  0.27164182  0.40456841  0.72524740     0.43900
N119        N  0.25621435  0.46075776  0.74132941    -0.33600
N120        N  0.27072005  0.45505117  0.72928431    -0.27900
C121        C  0.28534494  0.48707892  0.72102398    -0.04000
C122        C  0.27951988  0.51395781  0.72822902     0.08300
C123        C  0.26113776  0.49647070  0.74104205     0.02100
H124        H  0.29985040  0.49075745  0.71070255     0.09700
H125        H  0.25262148  0.50902027  0.74967148     0.08800
N126        N  0.27623625  0.35525543  0.72518294    -0.35000
N127        N  0.26654926  0.33096518  0.73623624    -0.27200
C128        C  0.27673361  0.30449473  0.73302433    -0.02500
C129        C  0.29265184  0.31202935  0.71921251     0.06100
C130        C  0.29196356  0.34439109  0.71459708     0.04200
H131        H  0.27293972  0.28150459  0.74023190     0.09300
H132        H  0.30364612  0.35996986  0.70453331     0.08200
N133        N  0.65512413  0.86537155  0.77308329    -0.26200
N134        N  0.62470612  0.83021961  0.77339072    -0.34100
C135        C  0.62672546  0.81159264  0.78523600     0.02100
C136        C  0.66001271  0.83604213  0.79280678     0.08200
C137        C  0.67732427  0.86993250  0.78478510    -0.04900
H138        H  0.60551449  0.78230467  0.78808462     0.08800
H139        H  0.70418984  0.89589818  0.78721858     0.10000
Cu140      Cu  0.58153985  0.80866635  0.75770161     0.44200
Cu141      Cu  0.66501614  0.90488090  0.75638801     0.42000
Cu142      Cu  0.59663278  0.86598101  0.72588031     0.43900
N143        N  0.54047378  0.79333011  0.74139936    -0.33600
N144        N  0.54590222  0.81437977  0.72962683    -0.27900
C145        C  0.51347906  0.79770059  0.72155051    -0.04000
C146        C  0.48661047  0.76456320  0.72859057     0.08300
C147        C  0.50454680  0.76267225  0.74112240     0.02100
H148        H  0.50950725  0.80934510  0.71149113     0.09700
H149        H  0.49211945  0.74112108  0.74960305     0.08800
N150        N  0.64585781  0.92017727  0.72602318    -0.35000
N151        N  0.66957359  0.93526020  0.73723492    -0.27200
C152        C  0.69590863  0.97210560  0.73404182    -0.02500
C153        C  0.68890052  0.98008037  0.72008102     0.06100
C154        C  0.65702395  0.94658212  0.71535649     0.04200
H155        H  0.71848236  0.99168168  0.74134728     0.09300
H156        H  0.64186561  0.94227335  0.70515917     0.08200
C157        C  0.98728566  0.96081427  0.05416001     0.81300
N158        N  0.96217142  0.97417992  0.05409155    -0.77000
C159        C  0.97554412  0.01271399  0.05425668     0.83700
N160        N  0.01408937  0.03786531  0.05474871    -0.77000
C161        C  0.03927528  0.02461609  0.05482949     0.83800
N162        N  0.02582134  0.98607577  0.05466067    -0.78700
N163        N  0.80218188  0.12253697  0.10549626    -0.26200
N164        N  0.83689619  0.12641129  0.10606056    -0.34100
C165        C  0.85576843  0.14776513  0.11777390     0.02100
C166        C  0.83192850  0.15800201  0.12497219     0.08200
C167        C  0.79813143  0.14144701  0.11687939    -0.04900
H168        H  0.88485912  0.15550529  0.12075375     0.08800
H169        H  0.77261738  0.14330354  0.11902484     0.10000
Cu170      Cu  0.85743647  0.10305805  0.09069665     0.44200
Cu171      Cu  0.76274256  0.09244556  0.08883199     0.42000
Cu172      Cu  0.79950180  0.05969928  0.05873153     0.43900
N173        N  0.87251906  0.07735319  0.07430996    -0.33600
N174        N  0.85141615  0.06144406  0.06254521    -0.27900
C175        C  0.86833762  0.04608455  0.05443417    -0.04000
C176        C  0.90165526  0.05290084  0.06144078     0.08300
C177        C  0.90342047  0.07264307  0.07398321     0.02100
H178        H  0.85674867  0.03037260  0.04436910     0.09700
H179        H  0.92509467  0.08212912  0.08243630     0.08800
N180        N  0.74572809  0.05553059  0.05884281    -0.35000
N181        N  0.73160122  0.06564695  0.06992708    -0.27200
C182        C  0.69495308  0.05585322  0.06682512    -0.02500
C183        C  0.68606441  0.03972651  0.05305556     0.06100
C184        C  0.71881161  0.03990058  0.04833867     0.04200
H185        H  0.67612602  0.06011994  0.07407132     0.09300
H186        H  0.72228236  0.02799393  0.03825732     0.08200
N187        N  0.32178926  0.20068318  0.10733149    -0.26200
N188        N  0.29094319  0.16588225  0.10795846    -0.34100
C189        C  0.29326650  0.14748336  0.11982414     0.02100
C190        C  0.32721519  0.17176070  0.12708399     0.08200
C191        C  0.34458008  0.20529118  0.11884576    -0.04900
H192        H  0.27183141  0.11846684  0.12289529     0.08800
H193        H  0.37190505  0.23101121  0.12099252     0.10000
Cu194      Cu  0.24715140  0.14477500  0.09251795     0.44200
Cu195      Cu  0.33119692  0.23939586  0.09039208     0.42000
Cu196      Cu  0.26325161  0.20011025  0.05975926     0.43900
N197        N  0.20651254  0.12901349  0.07602164    -0.33600
N198        N  0.21233918  0.14907706  0.06393252    -0.27900
C199        C  0.18013895  0.13180175  0.05574493    -0.04000
C200        C  0.15302032  0.09934805  0.06305292     0.08300
C201        C  0.17053874  0.09845404  0.07584481     0.02100
H202        H  0.17654780  0.14251069  0.04539044     0.09700
H203        H  0.15788920  0.07749793  0.08451500     0.08800
N204        N  0.31240707  0.25431429  0.05987952    -0.35000
N205        N  0.33588793  0.26947216  0.07115084    -0.27200
C206        C  0.36232462  0.30626040  0.06795778    -0.02500
C207        C  0.35566975  0.31412620  0.05393709     0.06100
C208        C  0.32384005  0.28064099  0.04917009     0.04200
H209        H  0.38479195  0.32584953  0.07529635     0.09300
H210        H  0.30895310  0.27627118  0.03890499     0.08200
N211        N  0.88054892  0.67887999  0.10594112    -0.26200
N212        N  0.87657327  0.70962963  0.10656283    -0.34100
C213        C  0.85559704  0.70715221  0.11838481     0.02100
C214        C  0.84574919  0.67318417  0.12561347     0.08200
C215        C  0.86210921  0.65599987  0.11741055    -0.04900
H216        H  0.84791538  0.72846221  0.12143448     0.08800
H217        H  0.86044448  0.62871547  0.11954705     0.10000
Cu218      Cu  0.89933178  0.75335937  0.09112000     0.44200
Cu219      Cu  0.91009780  0.66950951  0.08905554     0.42000
Cu220      Cu  0.93766632  0.73641143  0.05823371     0.43900
N221        N  0.92361899  0.79341569  0.07441889    -0.33600
N222        N  0.93749933  0.78733403  0.06228165    -0.27900
C223        C  0.95227283  0.81936352  0.05400728    -0.04000
C224        C  0.94719733  0.84661200  0.06131397     0.08300
C225        C  0.92910344  0.82933651  0.07418667     0.02100
H226        H  0.96643232  0.82281047  0.04362177     0.09700
H227        H  0.92118912  0.84217891  0.08290129     0.08800
N228        N  0.94332271  0.68765835  0.05844705    -0.35000
N229        N  0.93539688  0.66456370  0.06980187    -0.27200
C230        C  0.94611880  0.63843694  0.06668655    -0.02500
C231        C  0.96047592  0.64485187  0.05262861     0.06100
C232        C  0.95832919  0.67625720  0.04776373     0.04200
H233        H  0.94364967  0.61636108  0.07411083     0.09300
H234        H  0.96863512  0.69092448  0.03744933     0.08200
C235        C  0.68303121  0.37272617  0.21161949     0.81300
N236        N  0.70829682  0.35958319  0.21143527    -0.77000
C237        C  0.69515579  0.32111641  0.21142029     0.83700
N238        N  0.65662363  0.29574952  0.21132223    -0.77000
C239        C  0.63125868  0.30879214  0.21150095     0.83800
N240        N  0.64451613  0.34729923  0.21151725    -0.78700
N241        N  0.34748804  0.13408614  0.16017519    -0.26200
N242        N  0.37799316  0.16915176  0.15973446    -0.34100
C243        C  0.37553331  0.18776868  0.14796023     0.02100
C244        C  0.34184235  0.16336734  0.14057728     0.08200
C245        C  0.32478221  0.12954556  0.14864309    -0.04900
H246        H  0.39672246  0.21698890  0.14502337     0.08800
H247        H  0.29775792  0.10361902  0.14634603     0.10000
Cu248      Cu  0.42169200  0.19023725  0.17522387     0.44200
Cu249      Cu  0.33833484  0.09471965  0.17683331     0.42000
Cu250      Cu  0.40717677  0.13280887  0.20720636     0.43900
N251        N  0.46296757  0.20527731  0.19143795    -0.33600
N252        N  0.45777724  0.18435674  0.20323489    -0.27900
C253        C  0.49033332  0.20119121  0.21123606    -0.04000
C254        C  0.51701962  0.23426075  0.20411549     0.08300
C255        C  0.49886586  0.23596493  0.19162399     0.02100
H256        H  0.49447805  0.18974859  0.22131497     0.09700
H257        H  0.51107772  0.25750330  0.18313106     0.08800
N258        N  0.35777612  0.07874875  0.20705436    -0.35000
N259        N  0.33389624  0.06400410  0.19587119    -0.27200
C260        C  0.30730209  0.02722621  0.19902033    -0.02500
C261        C  0.31429920  0.01894704  0.21292879     0.06100
C262        C  0.34646737  0.05217372  0.21766537     0.04200
H263        H  0.28450005  0.00793242  0.19173173     0.09300
H264        H  0.36163625  0.05620304  0.22784183     0.08200
N265        N  0.87065222  0.21728719  0.15777705    -0.26200
N266        N  0.83603479  0.21363888  0.15713796    -0.34100
C267        C  0.81720165  0.19238659  0.14539953     0.02100
C268        C  0.84097477  0.18200182  0.13824347     0.08200
C269        C  0.87467392  0.19833871  0.14639763    -0.04900
H270        H  0.78816221  0.18476389  0.14238999     0.08800
H271        H  0.90006321  0.19620879  0.14431720     0.10000
Cu272      Cu  0.81539658  0.23678637  0.17251020     0.44200
Cu273      Cu  0.90989274  0.24675368  0.17463712     0.42000
Cu274      Cu  0.87012464  0.27256923  0.20567866     0.43900
N275        N  0.79968320  0.26030007  0.18947162    -0.33600
N276        N  0.81945092  0.27318060  0.20171407    -0.27900
C277        C  0.80216671  0.28736218  0.21024899    -0.04000
C278        C  0.77002226  0.28293872  0.20300327     0.08300
C279        C  0.76931829  0.26585097  0.18989366     0.02100
H280        H  0.81265742  0.30053475  0.22080743     0.09700
H281        H  0.74859489  0.25849822  0.18118843     0.08800
N282        N  0.92441190  0.27797843  0.20553072    -0.35000
N283        N  0.93991003  0.27087461  0.19407648    -0.27200
C284        C  0.97672369  0.28138661  0.19727506    -0.02500
C285        C  0.98426268  0.29472184  0.21148768     0.06100
C286        C  0.95049717  0.29214638  0.21636111     0.04200
H287        H  0.99656497  0.27942792  0.18981234     0.09300
H288        H  0.94581721  0.30170043  0.22678757     0.08200
N289        N  0.78826279  0.65296972  0.15888359    -0.26200
N290        N  0.79278942  0.62253505  0.15837772    -0.34100
C291        C  0.81342490  0.62484855  0.14647101     0.02100
C292        C  0.82252569  0.65839878  0.13907554     0.08200
C293        C  0.80604133  0.67549196  0.14725980    -0.04900
H294        H  0.82152645  0.60379313  0.14350914     0.08800
H295        H  0.80727233  0.70253518  0.14502801     0.10000
Cu296      Cu  0.77141524  0.57950347  0.17409930     0.44200
Cu297      Cu  0.75915277  0.66269833  0.17585077     0.42000
Cu298      Cu  0.73112335  0.59615530  0.20660519     0.43900
N299        N  0.74693388  0.53970932  0.19087114    -0.33600
N300        N  0.73210934  0.54562076  0.20278566    -0.27900
C301        C  0.71711304  0.51367220  0.21109732    -0.04000
C302        C  0.72307494  0.48667053  0.20406969     0.08300
C303        C  0.74190876  0.50397590  0.19130811     0.02100
H304        H  0.70222556  0.51011803  0.22131974     0.09700
H305        H  0.75050880  0.49122924  0.18278040     0.08800
N306        N  0.72650804  0.64545129  0.20652745    -0.35000
N307        N  0.73469570  0.66858097  0.19517411    -0.27200
C308        C  0.72477456  0.69527269  0.19834743    -0.02500
C309        C  0.71066993  0.68916949  0.21244391     0.06100
C310        C  0.71213518  0.65736052  0.21726986     0.04200
H311        H  0.72753328  0.71747288  0.19092555     0.09300
H312        H  0.70172748  0.64275149  0.22758914     0.08200
C313        C  0.29509283  0.65190558  0.04458989     0.81300
N314        N  0.30834967  0.62673764  0.04460565    -0.77000
C315        C  0.34684795  0.64000851  0.04476781     0.83700
N316        N  0.37212315  0.67854636  0.04464352    -0.77000
C317        C  0.35894624  0.70379473  0.04462425     0.83800
N318        N  0.32041977  0.69042234  0.04446835    -0.78700
N319        N  0.53324845  0.98706409  0.99299292    -0.26200
N320        N  0.49856418  0.95606143  0.99230159    -0.34100
C321        C  0.48030039  0.95819449  0.98035028     0.02100
C322        C  0.50455652  0.99220189  0.97312685     0.08200
C323        C  0.53791409  0.00977130  0.98146085    -0.04900
H324        H  0.45139596  0.93660977  0.97719896     0.08800
H325        H  0.56358731  0.03715379  0.97935622     0.10000
Cu326      Cu  0.47757472  0.91235136  0.00777728     0.44200
Cu327      Cu  0.57192082  0.99682735  0.00995722     0.42000
Cu328      Cu  0.53447989  0.92776609  0.04017801     0.43900
N329        N  0.46245428  0.87154434  0.02417409    -0.33600
N330        N  0.48311517  0.87707540  0.03608668    -0.27900
C331        C  0.46616812  0.84472611  0.04418225    -0.04000
C332        C  0.43330500  0.81782440  0.03700863     0.08300
C333        C  0.43182346  0.83561890  0.02438598     0.02100
H334        H  0.47739506  0.84087564  0.05437230     0.09700
H335        H  0.41046345  0.82315435  0.01583039     0.08800
N336        N  0.58841553  0.97731994  0.04006130    -0.35000
N337        N  0.60280528  0.00137962  0.02892733    -0.27200
C338        C  0.63958716  0.02808999  0.03200263    -0.02500
C339        C  0.64828936  0.02095101  0.04580750     0.06100
C340        C  0.61528878  0.98858775  0.05057174     0.04200
H341        H  0.65864499  0.05097238  0.02470615     0.09300
H342        H  0.61162884  0.97327156  0.06067858     0.08200
N343        N  0.45443002  0.46537328  0.99303863    -0.26200
N344        N  0.45742820  0.49968668  0.99227740    -0.34100
C345        C  0.47821167  0.51836908  0.98044937     0.02100
C346        C  0.48898671  0.49483298  0.97336176     0.08200
C347        C  0.47337331  0.46140919  0.98164723    -0.04900
H348        H  0.48519031  0.54713243  0.97731829     0.08800
H349        H  0.47588839  0.43622043  0.97962304     0.10000
Cu350      Cu  0.43388288  0.52019475  0.00750100     0.44200
Cu351      Cu  0.42540803  0.42637354  0.00996935     0.42000
Cu352      Cu  0.39501243  0.46481113  0.04019429     0.43900
N353        N  0.40926158  0.53584898  0.02404687    -0.33600
N354        N  0.39508230  0.51571624  0.03612937    -0.27900
C355        C  0.38030272  0.53291112  0.04439427    -0.04000
C356        C  0.38571858  0.56539339  0.03713795     0.08300
C357        C  0.40399838  0.56638875  0.02430112     0.02100
H358        H  0.36606256  0.52213773  0.05476586     0.09700
H359        H  0.41229561  0.58738457  0.01565128     0.08800
N360        N  0.39062983  0.41103243  0.04030230    -0.35000
N361        N  0.39965447  0.39610837  0.02916791    -0.27200
C362        C  0.38956013  0.35948371  0.03245916    -0.02500
C363        C  0.37445459  0.35150502  0.04640403     0.06100
C364        C  0.37552526  0.38474697  0.05102201     0.04200
H365        H  0.39293189  0.34005492  0.02522957     0.09300
H366        H  0.36443314  0.38894406  0.06117587     0.08200
N367        N  0.01299817  0.54409591  0.99242589    -0.26200
N368        N  0.04384301  0.54024915  0.99186093    -0.34100
C369        C  0.04191955  0.51993467  0.97990656     0.02100
C370        C  0.00823024  0.51038092  0.97252372     0.08200
C371        C  0.99060364  0.52620201  0.98077671    -0.04900
H372        H  0.06347560  0.51259475  0.97685120     0.08800
H373        H  0.96340609  0.52464407  0.97852540     0.10000
Cu374      Cu  0.08727591  0.56256881  0.00740627     0.44200
Cu375      Cu  0.00300326  0.57319422  0.00934241     0.42000
Cu376      Cu  0.07290345  0.60665740  0.03917042     0.43900
N377        N  0.12789354  0.58816400  0.02383974    -0.33600
N378        N  0.12279677  0.60442217  0.03550255    -0.27900
C379        C  0.15499238  0.61965248  0.04368587    -0.04000
C380        C  0.18130292  0.61235240  0.03683536     0.08300
C381        C  0.16335708  0.59249490  0.02430484     0.02100
H382        H  0.15916583  0.63553665  0.05370432     0.09700
H383        H  0.17545809  0.58266272  0.01595928     0.08800
N384        N  0.02333472  0.61074163  0.03922131    -0.35000
N385        N  0.99875025  0.60030246  0.02822922    -0.27200
C386        C  0.97190742  0.61001528  0.03143676    -0.02500
C387        C  0.97954951  0.62642070  0.04518403     0.06100
C388        C  0.01232283  0.62645657  0.04976275     0.04200
H389        H  0.94851070  0.60545367  0.02429353     0.09300
H390        H  0.02799055  0.63850442  0.05979000     0.08200
C391        C  0.70658363  0.34671747  0.88788675     0.81300
N392        N  0.69364099  0.37214595  0.88813884    -0.77000
C393        C  0.65519982  0.35921119  0.88823852     0.83700
N394        N  0.62966918  0.32072705  0.88833831    -0.77000
C395        C  0.64249812  0.29519628  0.88809291     0.83800
N396        N  0.68098145  0.30824426  0.88799384    -0.78700
N397        N  0.98899407  0.45359703  0.93911764    -0.26200
N398        N  0.95867685  0.45833829  0.93946301    -0.34100
C399        C  0.96079796  0.47899107  0.95133781     0.02100
C400        C  0.99410142  0.48787910  0.95887968     0.08200
C401        C  0.01128917  0.47130125  0.95080749    -0.04900
H402        H  0.93965599  0.48703864  0.95422643     0.08800
H403        H  0.03807140  0.47214121  0.95322435     0.10000
Cu404      Cu  0.91568954  0.43666692  0.92372342     0.44200
Cu405      Cu  0.99829340  0.42351125  0.92243725     0.42000
Cu406      Cu  0.92882537  0.39094746  0.89227842     0.43900
N407        N  0.87474873  0.41097286  0.90738425    -0.33600
N408        N  0.87931193  0.39400870  0.89582827    -0.27900
C409        C  0.84684355  0.37856914  0.88778572    -0.04000
C410        C  0.82091151  0.38648212  0.89461987     0.08300
C411        C  0.83939749  0.40692327  0.90698686     0.02100
H412        H  0.84216725  0.36200329  0.87791484     0.09700
H413        H  0.82765349  0.41717844  0.91531657     0.08800
N414        N  0.97805005  0.38622606  0.89250758    -0.35000
N415        N  0.00230438  0.39623321  0.90359826    -0.27200
C416        C  0.02899847  0.38626738  0.90048431    -0.02500
C417        C  0.02162139  0.37016835  0.88669847     0.06100
C418        C  0.98917452  0.37056416  0.88199039     0.04200
H419        H  0.05219292  0.39059208  0.90769469     0.09300
H420        H  0.97384471  0.35893307  0.87187040     0.08200
N421        N  0.54747972  0.53358962  0.94042795    -0.26200
N422        N  0.54437840  0.49922097  0.94111323    -0.34100
C423        C  0.52340157  0.48037777  0.95288871     0.02100
C424        C  0.51263691  0.50388195  0.96001387     0.08200
C425        C  0.52843605  0.53743499  0.95180621    -0.04900
H426        H  0.51631663  0.45154870  0.95596709     0.08800
H427        H  0.52599553  0.56264746  0.95387614     0.10000
Cu428      Cu  0.56814277  0.47892771  0.92586381     0.44200
Cu429      Cu  0.57666263  0.57286250  0.92361436     0.42000
Cu430      Cu  0.60671280  0.53445372  0.89322480     0.43900
N431        N  0.59302450  0.46351676  0.90930834    -0.33600
N432        N  0.60711620  0.48371339  0.89723305    -0.27900
C433        C  0.62204477  0.46667498  0.88894987    -0.04000
C434        C  0.61683639  0.43422858  0.89618922     0.08300
C435        C  0.59849712  0.43310031  0.90903079     0.02100
H436        H  0.63620720  0.47750428  0.87856991     0.09700
H437        H  0.59026163  0.41206657  0.91766318     0.08800
N438        N  0.61053186  0.58802840  0.89314648    -0.35000
N439        N  0.60170233  0.60295520  0.90433559    -0.27200
C440        C  0.61143462  0.63947325  0.90103155    -0.02500
C441        C  0.62607573  0.64737724  0.88701971     0.06100
C442        C  0.62513397  0.61421228  0.88237872     0.04200
H443        H  0.60816316  0.65889005  0.90830309     0.09300
H444        H  0.63604538  0.61003605  0.87217603     0.08200
N445        N  0.46760829  0.01198458  0.93974123    -0.26200
N446        N  0.50221814  0.04310081  0.94049081    -0.34100
C447        C  0.52050409  0.04089993  0.95242292     0.02100
C448        C  0.49634867  0.00676103  0.95958349     0.08200
C449        C  0.46303174  0.98916586  0.95122721    -0.04900
H450        H  0.54934859  0.06255213  0.95561064     0.08800
H451        H  0.43744896  0.96166987  0.95328091     0.10000
Cu452      Cu  0.52327565  0.08714383  0.92515432     0.44200
Cu453      Cu  0.42883087  0.00192169  0.92274691     0.42000
Cu454      Cu  0.46701226  0.07054799  0.89253701     0.43900
N455        N  0.53835266  0.12774336  0.90868501    -0.33600
N456        N  0.51790869  0.12180835  0.89668198    -0.27900
C457        C  0.53481118  0.15404133  0.88851000    -0.04000
C458        C  0.56742464  0.18128167  0.89573297     0.08300
C459        C  0.56878701  0.16378896  0.90845748     0.02100
H460        H  0.52378492  0.15754314  0.87821263     0.09700
H461        H  0.58999199  0.17651322  0.91705368     0.08800
N462        N  0.41341782  0.02043183  0.89232184    -0.35000
N463        N  0.39858218  0.99652616  0.90347771    -0.27200
C464        C  0.36203390  0.96954473  0.90017703    -0.02500
C465        C  0.35397119  0.97630017  0.88619274     0.06100
C466        C  0.38712805  0.00875766  0.88157448     0.04200
H467        H  0.34265900  0.94678025  0.90744990     0.09300
H468        H  0.39118651  0.02398074  0.87141599     0.08200
C469        C  0.03765905  0.01338042  0.55438385     0.81300
N470        N  0.02480087  0.03889236  0.55448533    -0.77000
C471        C  0.98636068  0.02604528  0.55453597     0.83700
N472        N  0.96076146  0.98755707  0.55475430    -0.77000
C473        C  0.97352820  0.96195809  0.55465689     0.83800
N474        N  0.01198601  0.97494429  0.55459850    -0.78700
N475        N  0.87692499  0.19942396  0.60636514    -0.26200
N476        N  0.87350504  0.16490667  0.60695444    -0.34100
C477        C  0.85257296  0.14607562  0.61874635     0.02100
C478        C  0.84219260  0.16975183  0.62598411     0.08200
C479        C  0.85817234  0.20338666  0.61782100    -0.04900
H480        H  0.84533437  0.11717434  0.62178269     0.08800
H481        H  0.85607735  0.22875618  0.61998173     0.10000
Cu482      Cu  0.89713274  0.14462196  0.59159899     0.44200
Cu483      Cu  0.90628569  0.23886500  0.58961076     0.42000
Cu484      Cu  0.93854731  0.20196929  0.55942898     0.43900
N485        N  0.92318948  0.12997460  0.57520512    -0.33600
N486        N  0.93840018  0.15085301  0.56334586    -0.27900
C487        C  0.95391989  0.13415391  0.55518533    -0.04000
C488        C  0.94793441  0.10121355  0.56226730     0.08300
C489        C  0.92851669  0.09945871  0.57489627     0.02100
H490        H  0.96898071  0.14552482  0.54499287     0.09700
H491        H  0.91946231  0.07792544  0.58337803     0.08800
N492        N  0.94175952  0.25532593  0.55939926    -0.35000
N493        N  0.93203016  0.26967594  0.57052350    -0.27200
C494        C  0.94139149  0.30614218  0.56729831    -0.02500
C495        C  0.95673906  0.31461821  0.55339500     0.06100
C496        C  0.95659702  0.28184166  0.54874677     0.04200
H497        H  0.93737090  0.32512605  0.57454752     0.09300
H498        H  0.96814797  0.27815248  0.53861463     0.08200
N499        N  0.31967133  0.11842740  0.60653934    -0.26200
N500        N  0.28851387  0.12169442  0.60730138    -0.34100
C501        C  0.29089337  0.14258152  0.61913473     0.02100
C502        C  0.32520934  0.15311412  0.62622725     0.08200
C503        C  0.34273562  0.13727086  0.61793093    -0.04900
H504        H  0.26927171  0.14974773  0.62228104     0.08800
H505        H  0.37034386  0.13952927  0.61995660     0.10000
Cu506      Cu  0.24431298  0.09827602  0.59204984     0.44200
Cu507      Cu  0.32921942  0.08914164  0.58961225     0.42000
Cu508      Cu  0.26068775  0.05925062  0.55927395     0.43900
N509        N  0.20417609  0.07421178  0.57535648    -0.33600
N510        N  0.21008602  0.06004826  0.56326008    -0.27900
C511        C  0.17820878  0.04574200  0.55490921    -0.04000
C512        C  0.15123424  0.05141701  0.56211894     0.08300
C513        C  0.16850032  0.06938462  0.57502044     0.02100
H514        H  0.17471180  0.03159659  0.54451222     0.09700
H515        H  0.15585099  0.07774705  0.58366188     0.08800
N516        N  0.30994754  0.05449011  0.55923617    -0.35000
N517        N  0.33376303  0.06340078  0.57042063    -0.27200
C518        C  0.36026646  0.05326949  0.56718701    -0.02500
C519        C  0.35330903  0.03824209  0.55322558     0.06100
C520        C  0.32121505  0.03939697  0.54854014     0.04200
H521        H  0.38296388  0.05658506  0.57446858     0.09300
H522        H  0.30606086  0.02841952  0.53834359     0.08200
N523        N  0.79874341  0.67911225  0.60680127    -0.26200
N524        N  0.83370968  0.70976245  0.60732525    -0.34100
C525        C  0.85231520  0.70724058  0.61909296     0.02100
C526        C  0.82800530  0.67338115  0.62638278     0.08200
C527        C  0.79423429  0.65628290  0.61827812    -0.04900
H528        H  0.88150946  0.72845970  0.62206876     0.08800
H529        H  0.76844087  0.62906788  0.62046875     0.10000
Cu530      Cu  0.85488923  0.75358094  0.59188365     0.44200
Cu531      Cu  0.75965503  0.66963082  0.59001860     0.42000
Cu532      Cu  0.79879070  0.73716045  0.55934806     0.43900
N533        N  0.87023438  0.79426134  0.57541553    -0.33600
N534        N  0.84981351  0.78831872  0.56340832    -0.27900
C535        C  0.86665506  0.82056815  0.55524803    -0.04000
C536        C  0.89920543  0.84786770  0.56248245     0.08300
C537        C  0.90060527  0.83036024  0.57520572     0.02100
H538        H  0.85554196  0.82409503  0.54497452     0.09700
H539        H  0.92171691  0.84314446  0.58382945     0.08800
N540        N  0.74477273  0.68761422  0.55940941    -0.35000
N541        N  0.72967184  0.66426965  0.57070809    -0.27200
C542        C  0.69298924  0.63753859  0.56749597    -0.02500
C543        C  0.68509915  0.64385741  0.55343448     0.06100
C544        C  0.71848767  0.67579345  0.54865933     0.04200
H545        H  0.67345408  0.61516319  0.57486510     0.09300
H546        H  0.72276579  0.69053717  0.53837150     0.08200
C547        C  0.62777973  0.31905211  0.71163131     0.81300
N548        N  0.65313829  0.35755989  0.71163288    -0.77000
C549        C  0.69166190  0.37092953  0.71183730     0.83700
N550        N  0.70483022  0.34565167  0.71178576    -0.77000
C551        C  0.67953009  0.30708773  0.71179609     0.83800
N552        N  0.64102414  0.29386021  0.71158088    -0.78700
N553        N  0.34530001  0.21124106  0.65929912    -0.26200
N554        N  0.37620229  0.20749948  0.65872373    -0.34100
C555        C  0.37394332  0.18660858  0.64690150     0.02100
C556        C  0.33994663  0.17654091  0.63964187     0.08200
C557        C  0.32251752  0.19268591  0.64781627    -0.04900
H558        H  0.39540865  0.17911434  0.64387888     0.08800
H559        H  0.29516883  0.19086503  0.64563722     0.10000
Cu560      Cu  0.41997469  0.23055029  0.67416592     0.44200
Cu561      Cu  0.33564215  0.24089497  0.67604016     0.42000
Cu562      Cu  0.40562369  0.27448925  0.70595403     0.43900
N563        N  0.46076179  0.25630132  0.69057173    -0.33600
N564        N  0.45565937  0.27247273  0.70226086    -0.27900
C565        C  0.48785128  0.28761660  0.71045351    -0.04000
C566        C  0.51418259  0.28036230  0.70358130     0.08300
C567        C  0.49622790  0.26061498  0.69102846     0.02100
H568        H  0.49197897  0.30333180  0.72051149     0.09700
H569        H  0.50828870  0.25073882  0.68268337     0.08800
N570        N  0.35587593  0.27831061  0.70593385    -0.35000
N571        N  0.33135468  0.26784536  0.69491792    -0.27200
C572        C  0.30436776  0.27735985  0.69809444    -0.02500
C573        C  0.31183112  0.29365499  0.71184612     0.06100
C574        C  0.34466748  0.29387782  0.71646330     0.04200
H575        H  0.28100365  0.27274360  0.69092284     0.09300
H576        H  0.36022977  0.30593992  0.72650798     0.08200
N577        N  0.78413165  0.13125393  0.65905800    -0.26200
N578        N  0.78809560  0.16599624  0.65856784    -0.34100
C579        C  0.80898857  0.18477689  0.64676623     0.02100
C580        C  0.81880299  0.16082740  0.63941165     0.08200
C581        C  0.80252166  0.12708136  0.64752156    -0.04900
H582        H  0.81669033  0.21387011  0.64382995     0.08800
H583        H  0.80423825  0.10153436  0.64528551     0.10000
Cu584      Cu  0.76547773  0.18662575  0.67415781     0.44200
Cu585      Cu  0.75479853  0.09213044  0.67591134     0.42000
Cu586      Cu  0.72682612  0.13089797  0.70690667     0.43900
N587        N  0.74115191  0.20222202  0.69086177    -0.33600
N588        N  0.72704154  0.18205908  0.70294724    -0.27900
C589        C  0.71246508  0.19938690  0.71126737    -0.04000
C590        C  0.71793164  0.23196804  0.70404285     0.08300
C591        C  0.73603526  0.23285664  0.69117138     0.02100
H592        H  0.69832377  0.18864830  0.72165572     0.09700
H593        H  0.74431403  0.25386440  0.68252697     0.08800
N594        N  0.72258833  0.07705219  0.70669063    -0.35000
N595        N  0.73060497  0.06208394  0.69529253    -0.27200
C596        C  0.72090820  0.02550363  0.69846099    -0.02500
C597        C  0.70716648  0.01755358  0.71259643     0.06100
C598        C  0.70858253  0.05079678  0.71745766     0.04200
H599        H  0.72366613  0.00608817  0.69101959     0.09300
H600        H  0.69840568  0.05498695  0.72782922     0.08200
N601        N  0.86595951  0.65295730  0.65935095    -0.26200
N602        N  0.83083512  0.62250150  0.65894595    -0.34100
C603        C  0.81216644  0.62494707  0.64717995     0.02100
C604        C  0.83657966  0.65856417  0.63977593     0.08200
C605        C  0.87047365  0.67558098  0.64780518    -0.04900
H606        H  0.78284604  0.60387315  0.64429512     0.08800
H607        H  0.89637742  0.70261732  0.64551281     0.10000
Cu608      Cu  0.80942287  0.57901643  0.67452936     0.44200
Cu609      Cu  0.90545424  0.66264723  0.67603425     0.42000
Cu610      Cu  0.86677413  0.59507206  0.70661490     0.43900
N611        N  0.79420530  0.53849738  0.69105359    -0.33600
N612        N  0.81520612  0.54431116  0.70288435    -0.27900
C613        C  0.79847434  0.51219114  0.71111119    -0.04000
C614        C  0.76535447  0.48511243  0.70411578     0.08300
C615        C  0.76352087  0.50260153  0.69145283     0.02100
H616        H  0.81005967  0.50857958  0.72125396     0.09700
H617        H  0.74195596  0.48989505  0.68297665     0.08800
N618        N  0.92085273  0.64441584  0.70651177    -0.35000
N619        N  0.93588111  0.66788935  0.69524592    -0.27200
C620        C  0.97266312  0.69444577  0.69843727    -0.02500
C621        C  0.98065755  0.68784100  0.71245491     0.06100
C622        C  0.94723156  0.65594932  0.71721460     0.04200
H623        H  0.99219910  0.71687406  0.69108645     0.09300
H624        H  0.94297980  0.64101740  0.72745642     0.08200
C625        C  0.96176996  0.98574889  0.37832895     0.81300
N626        N  0.98697897  0.02428476  0.37811515    -0.77000
C627        C  0.02552071  0.03780513  0.37774755     0.83700
N628        N  0.03884555  0.01267852  0.37733910    -0.77000
C629        C  0.01370953  0.97409729  0.37754504     0.83800
N630        N  0.97517138  0.96068982  0.37791248    -0.78700
N631        N  0.12161198  0.79874101  0.32589005    -0.26200
N632        N  0.12595089  0.83364485  0.32540600    -0.34100
C633        C  0.14731542  0.85243846  0.31369238     0.02100
C634        C  0.15705325  0.82835050  0.30639272     0.08200
C635        C  0.14021565  0.79449080  0.31444088    -0.04900
H636        H  0.15532962  0.88161934  0.31076134     0.08800
H637        H  0.14165465  0.76878824  0.31221242     0.10000
Cu638      Cu  0.10296460  0.85451185  0.34080269     0.44200
Cu639      Cu  0.09128830  0.75934064  0.34255331     0.42000
Cu640      Cu  0.05889758  0.79690984  0.37260215     0.43900
N641        N  0.07697384  0.86986013  0.35699731    -0.33600
N642        N  0.06070599  0.84878719  0.36872367    -0.27900
C643        C  0.04537378  0.86587882  0.37675256    -0.04000
C644        C  0.05259682  0.89929804  0.36973112     0.08300
C645        C  0.07253689  0.90092664  0.35726363     0.02100
H646        H  0.02954617  0.85442613  0.38679951     0.09700
H647        H  0.08245907  0.92269302  0.34884365     0.08800
N648        N  0.05501499  0.74330441  0.37266231    -0.35000
N649        N  0.06488619  0.72880517  0.36162639    -0.27200
C650        C  0.05524999  0.69230774  0.36492022    -0.02500
C651        C  0.03954871  0.68396643  0.37876474     0.06100
C652        C  0.03975095  0.71683198  0.38331435     0.04200
H653        H  0.05935054  0.67321695  0.35775911     0.09300
H654        H  0.02808513  0.72067235  0.39338924     0.08200
N655        N  0.20026007  0.32022161  0.32584914    -0.26200
N656        N  0.16537180  0.28950897  0.32515149    -0.34100
C657        C  0.14714545  0.29199450  0.31325416     0.02100
C658        C  0.17160922  0.32593583  0.30604588     0.08200
C659        C  0.20508159  0.34310187  0.31434709    -0.04900
H660        H  0.11809256  0.27071100  0.31014191     0.08800
H661        H  0.23090075  0.37037574  0.31225503     0.10000
Cu662      Cu  0.14388313  0.24580223  0.34059082     0.44200
Cu663      Cu  0.23878449  0.32937796  0.34289370     0.42000
Cu664      Cu  0.19855826  0.26287458  0.37375604     0.43900
N665        N  0.12805168  0.20559239  0.35721841    -0.33600
N666        N  0.14776735  0.21179869  0.36943352    -0.27900
C667        C  0.13064553  0.17962211  0.37761831    -0.04000
C668        C  0.09867889  0.15212258  0.37017736     0.08300
C669        C  0.09788983  0.16939280  0.35731192     0.02100
H670        H  0.14127100  0.17624301  0.38802732     0.09700
H671        H  0.07739062  0.15637405  0.34850934     0.08800
N672        N  0.25336249  0.31122732  0.37357556    -0.35000
N673        N  0.26887571  0.33411996  0.36218491    -0.27200
C674        C  0.30594384  0.35994819  0.36529134    -0.02500
C675        C  0.31367978  0.35353914  0.37937346     0.06100
C676        C  0.27974639  0.32248278  0.38427964     0.04200
H677        H  0.32582335  0.38186351  0.35785360     0.09300
H678        H  0.27509463  0.30792671  0.39462964     0.08200
N679        N  0.68099399  0.87952710  0.32596986    -0.26200
N680        N  0.71186668  0.87572745  0.32542986    -0.34100
C681        C  0.70988675  0.85525052  0.31351125     0.02100
C682        C  0.67611666  0.84552951  0.30613657     0.08200
C683        C  0.65853357  0.86145451  0.31435422    -0.04900
H684        H  0.73137576  0.84777512  0.31050364     0.08800
H685        H  0.63124828  0.85972738  0.31213005     0.10000
Cu686      Cu  0.75508680  0.89797932  0.34110538     0.44200
Cu687      Cu  0.67079274  0.90835239  0.34291772     0.42000
Cu688      Cu  0.73761819  0.93685011  0.37375959     0.43900
N689        N  0.79473505  0.92224832  0.35795586    -0.33600
N690        N  0.78851777  0.93644548  0.36998089    -0.27900
C691        C  0.82038492  0.95124805  0.37836242    -0.04000
C692        C  0.84764584  0.94581625  0.37124808     0.08300
C693        C  0.83056845  0.92751606  0.35837635     0.02100
H694        H  0.82370698  0.96564027  0.38868911     0.09700
H695        H  0.84351374  0.91936148  0.34977779     0.08800
N696        N  0.68852524  0.94190403  0.37347212    -0.35000
N697        N  0.66532124  0.93354533  0.36211914    -0.27200
C698        C  0.63890887  0.94393538  0.36518995    -0.02500
C699        C  0.64529531  0.95854660  0.37921797     0.06100
C700        C  0.67695248  0.95687970  0.38410386     0.04200
H701        H  0.61672055  0.94114884  0.35774713     0.09300
H702        H  0.69167859  0.96751170  0.39439696     0.08200
C703        C  0.37567556  0.68119583  0.22041535     0.81300
N704        N  0.35029284  0.64267587  0.22067927    -0.77000
C705        C  0.31176474  0.62936195  0.22093774     0.83700
N706        N  0.29867198  0.65467672  0.22118903    -0.77000
C707        C  0.32397122  0.69320552  0.22093404     0.83800
N708        N  0.36246549  0.70641274  0.22067904    -0.78700
N709        N  0.21623553  0.86693771  0.27356734    -0.26200
N710        N  0.21218038  0.83215198  0.27408859    -0.34100
C711        C  0.19080119  0.81328472  0.28579384     0.02100
C712        C  0.18079060  0.83722540  0.29305189     0.08200
C713        C  0.19745681  0.87104702  0.28498426    -0.04900
H714        H  0.18296175  0.78416410  0.28874599     0.08800
H715        H  0.19575148  0.89662334  0.28716990     0.10000
Cu716      Cu  0.23545228  0.81159458  0.25869204     0.44200
Cu717      Cu  0.24623764  0.90637652  0.25686537     0.42000
Cu718      Cu  0.27537591  0.86811389  0.22620663     0.43900
N719        N  0.26068589  0.79655054  0.24210999    -0.33600
N720        N  0.27524339  0.81710293  0.23013539    -0.27900
C721        C  0.29037810  0.80025619  0.22186007    -0.04000
C722        C  0.28482946  0.76755555  0.22898612     0.08300
C723        C  0.26607440  0.76607825  0.24176259     0.02100
H724        H  0.30495617  0.81141711  0.21157022     0.09700
H725        H  0.25755207  0.74479721  0.25031669     0.08800
N726        N  0.27967737  0.92187176  0.22630571    -0.35000
N727        N  0.27122298  0.93675787  0.23760931    -0.27200
C728        C  0.28116195  0.97339535  0.23442239    -0.02500
C729        C  0.29553594  0.98142989  0.22037030     0.06100
C730        C  0.29422211  0.94819615  0.21558042     0.04200
H731        H  0.27818201  0.99280282  0.24179695     0.09300
H732        H  0.30484591  0.94405565  0.20530254     0.08200
N733        N  0.65677617  0.78842025  0.27278848    -0.26200
N734        N  0.62608216  0.79253936  0.27324987    -0.34100
C735        C  0.62812014  0.81311540  0.28514655     0.02100
C736        C  0.66174810  0.82259265  0.29258093     0.08200
C737        C  0.67918336  0.80640942  0.28442573    -0.04900
H738        H  0.60676655  0.82082305  0.28809955     0.08800
H739        H  0.70631354  0.80786220  0.28671663     0.10000
Cu740      Cu  0.58293448  0.77049977  0.25752722     0.44200
Cu741      Cu  0.66682264  0.75917415  0.25595165     0.42000
Cu742      Cu  0.59917475  0.72892293  0.22538702     0.43900
N743        N  0.54299017  0.74561383  0.24078235    -0.33600
N744        N  0.54876415  0.73031957  0.22897440    -0.27900
C745        C  0.51678489  0.71518136  0.22065440    -0.04000
C746        C  0.48989105  0.72153713  0.22756841     0.08300
C747        C  0.50731268  0.74074780  0.24026951     0.02100
H748        H  0.51311590  0.69989608  0.21051892     0.09700
H749        H  0.49465945  0.74969049  0.24871619     0.08800
N750        N  0.64839951  0.72418035  0.22564089    -0.35000
N751        N  0.67200247  0.73323674  0.23690016    -0.27200
C752        C  0.69859778  0.72309511  0.23381588    -0.02500
C753        C  0.69186850  0.70790230  0.21987210     0.06100
C754        C  0.65986725  0.70900821  0.21505174     0.04200
H755        H  0.72119152  0.72652725  0.24117688     0.09300
H756        H  0.64490668  0.69795233  0.20482586     0.08200
N757        N  0.13467358  0.34669745  0.27282223    -0.26200
N758        N  0.16970941  0.37722976  0.27345125    -0.34100
C759        C  0.18798831  0.37461580  0.28530719     0.02100
C760        C  0.16342496  0.34079773  0.29256187     0.08200
C761        C  0.12983067  0.32382426  0.28433071    -0.04900
H762        H  0.21713935  0.39575311  0.28836744     0.08800
H763        H  0.10389882  0.29669271  0.28647971     0.10000
Cu764      Cu  0.19146243  0.42107460  0.25805526     0.44200
Cu765      Cu  0.09586475  0.33759614  0.25587803     0.42000
Cu766      Cu  0.13596351  0.40517553  0.22531917     0.43900
N767        N  0.20730203  0.46179360  0.24161057    -0.33600
N768        N  0.18717019  0.45606878  0.22953812    -0.27900
C769        C  0.20444060  0.48834928  0.22140439    -0.04000
C770        C  0.23695485  0.51540538  0.22872646     0.08300
C771        C  0.23788556  0.49775720  0.24147432     0.02100
H772        H  0.19366743  0.49205365  0.21108074     0.09700
H773        H  0.25885456  0.51033388  0.25015384     0.08800
N774        N  0.08149262  0.35618407  0.22524905    -0.35000
N775        N  0.06595887  0.33283731  0.23652236    -0.27200
C776        C  0.02912217  0.30661570  0.23323190    -0.02500
C777        C  0.02158996  0.31324247  0.21914260     0.06100
C778        C  0.05538435  0.34483918  0.21444135     0.04200
H779        H  0.00925905  0.28430346  0.24054947     0.09300
H780        H  0.06008886  0.35969088  0.20415547     0.08200
C781        C  0.65138805  0.29348819  0.38778485     0.81300
N782        N  0.62629527  0.30686085  0.38775268    -0.77000
C783        C  0.63970090  0.34538917  0.38761289     0.83700
N784        N  0.67826833  0.37055346  0.38777401    -0.77000
C785        C  0.70342767  0.35727006  0.38781363     0.83800
N786        N  0.68993663  0.31873243  0.38794298    -0.78700
N787        N  0.98732354  0.53225430  0.43931111    -0.26200
N788        N  0.95629991  0.49756348  0.43992347    -0.34100
C789        C  0.95830645  0.47915033  0.45184206     0.02100
C790        C  0.99223865  0.50327667  0.45913762     0.08200
C791        C  0.00991390  0.53674728  0.45087737    -0.04900
H792        H  0.93668012  0.45021228  0.45491826     0.08800
H793        H  0.03730059  0.56236706  0.45305155     0.10000
Cu794      Cu  0.91256297  0.47647466  0.42444759     0.44200
Cu795      Cu  0.99730770  0.57115481  0.42239006     0.42000
Cu796      Cu  0.92705111  0.53345174  0.39242099     0.43900
N797        N  0.87137804  0.46100259  0.40817023    -0.33600
N798        N  0.87657653  0.48184439  0.39635181    -0.27900
C799        C  0.84415576  0.46480748  0.38828309    -0.04000
C800        C  0.81754492  0.43167154  0.39537999     0.08300
C801        C  0.83559437  0.43013568  0.40793025     0.02100
H802        H  0.84005363  0.47614766  0.37816973     0.09700
H803        H  0.82338122  0.40860230  0.41642489     0.08800
N804        N  0.97691943  0.58708065  0.39232686    -0.35000
N805        N  0.00148777  0.60161571  0.40331937    -0.27200
C806        C  0.02840500  0.63815393  0.40001278    -0.02500
C807        C  0.02083683  0.64648641  0.38620745     0.06100
C808        C  0.98801666  0.61357146  0.38169589     0.04200
H809        H  0.05172583  0.65729785  0.40714858     0.09300
H810        H  0.97231983  0.60970545  0.37166461     0.08200
N811        N  0.46598663  0.45221137  0.44003329    -0.26200
N812        N  0.50059532  0.45586116  0.44069590    -0.34100
C813        C  0.51923277  0.47674107  0.45252305     0.02100
C814        C  0.49534146  0.48691527  0.45969937     0.08200
C815        C  0.46177947  0.47084366  0.45147465    -0.04900
H816        H  0.54821106  0.48424708  0.45557853     0.08800
H817        H  0.43632349  0.47284198  0.45357199     0.10000
Cu818      Cu  0.52137760  0.43308914  0.42527594     0.44200
Cu819      Cu  0.42690995  0.42281420  0.42315259     0.42000
Cu820      Cu  0.46601549  0.39586130  0.39224351     0.43900
N821        N  0.53680383  0.40903235  0.40846009    -0.33600
N822        N  0.51685260  0.39561858  0.39628173    -0.27900
C823        C  0.53389905  0.38087084  0.38791304    -0.04000
C824        C  0.56606171  0.38548590  0.39520247     0.08300
C825        C  0.56703400  0.40327253  0.40816353     0.02100
H826        H  0.52314120  0.36704131  0.37747080     0.09700
H827        H  0.58774428  0.41080771  0.41688512     0.08800
N828        N  0.41140660  0.38968426  0.39255619    -0.35000
N829        N  0.39624732  0.39730987  0.40398653    -0.27200
C830        C  0.35922853  0.38630167  0.40096675    -0.02500
C831        C  0.35117329  0.37205733  0.38688993     0.06100
C832        C  0.38485406  0.37463950  0.38190421     0.04200
H833        H  0.33963666  0.38863639  0.40844600     0.09300
H834        H  0.38922419  0.36464583  0.37152140     0.08200
N835        N  0.54500057  0.01111697  0.43951385    -0.26200
N836        N  0.54065368  0.04165841  0.44000797    -0.34100
C837        C  0.52019931  0.03956487  0.45194551     0.02100
C838        C  0.51105733  0.00606769  0.45939319     0.08200
C839        C  0.52728249  0.98874069  0.45118335    -0.04900
H840        H  0.51247177  0.06087107  0.45494810     0.08800
H841        H  0.52613476  0.96176810  0.45348430     0.10000
Cu842      Cu  0.56268047  0.08490538  0.42435615     0.44200
Cu843      Cu  0.57452679  0.00164672  0.42260917     0.42000
Cu844      Cu  0.60878114  0.07211158  0.39281625     0.43900
N845        N  0.58851216  0.12595659  0.40804907    -0.33600
N846        N  0.60561788  0.12153481  0.39650438    -0.27900
C847        C  0.62075328  0.15392117  0.38843816    -0.04000
C848        C  0.61248693  0.17964344  0.39523275     0.08300
C849        C  0.59217497  0.16114238  0.40761213     0.02100
H850        H  0.63717290  0.15861240  0.37852917     0.09700
H851        H  0.58158078  0.17270101  0.41588669     0.08800
N852        N  0.61205321  0.02205427  0.39268427    -0.35000
N853        N  0.60132403  0.99733779  0.40363521    -0.27200
C854        C  0.61049859  0.97015205  0.40035372    -0.02500
C855        C  0.62682316  0.97766703  0.38660091     0.06100
C856        C  0.62741888  0.01076637  0.38209886     0.04200
H857        H  0.60567966  0.94663002  0.40746464     0.09300
H858        H  0.63965252  0.02647129  0.37210139     0.08200
C859        C  0.34591005  0.70366843  0.54454650     0.81300
N860        N  0.37116682  0.69049615  0.54444489    -0.77000
C861        C  0.35801901  0.65201593  0.54461156     0.83700
N862        N  0.31947450  0.62665834  0.54462175    -0.77000
C863        C  0.29411843  0.63972290  0.54472576     0.83800
N864        N  0.30739293  0.67823413  0.54455828    -0.78700
N865        N  0.45452135  0.98679405  0.49290207    -0.26200
N866        N  0.45856659  0.95607242  0.49235668    -0.34100
C867        C  0.47908041  0.95817671  0.48043500     0.02100
C868        C  0.48855547  0.99185066  0.47305239     0.08200
C869        C  0.47248049  0.00928032  0.48128463    -0.04900
H870        H  0.48658139  0.93673254  0.47738899     0.08800
H871        H  0.47386519  0.03638271  0.47902850     0.10000
Cu872      Cu  0.43607016  0.91251135  0.50790024     0.44200
Cu873      Cu  0.42501088  0.99638938  0.50976617     0.42000
Cu874      Cu  0.39371625  0.92729678  0.54002093     0.43900
N875        N  0.41039040  0.87157212  0.52426908    -0.33600
N876        N  0.39485457  0.87684764  0.53610993    -0.27900
C877        C  0.37939423  0.84446064  0.54419196    -0.04000
C878        C  0.38575112  0.81779864  0.53708155     0.08300
C879        C  0.40532782  0.83580230  0.52451239     0.02100
H880        H  0.36395345  0.84038726  0.55431383     0.09700
H881        H  0.41450479  0.82354237  0.51599515     0.08800
N882        N  0.38875832  0.97642837  0.53988885    -0.35000
N883        N  0.39816105  0.00045213  0.52875535    -0.27200
C884        C  0.38775164  0.02680980  0.53189987    -0.02500
C885        C  0.37201958  0.01949820  0.54574994     0.06100
C886        C  0.37308579  0.98740404  0.55045960     0.04200
H887        H  0.39143454  0.04968442  0.52465051     0.09300
H888        H  0.36174360  0.97209763  0.56059662     0.08200
N889        N  0.53359645  0.54537169  0.49267266    -0.26200
N890        N  0.49922272  0.54224897  0.49189166    -0.34100
C891        C  0.48054787  0.52125861  0.48008971     0.02100
C892        C  0.50418738  0.51052871  0.47304810     0.08200
C893        C  0.53763543  0.52635568  0.48132920    -0.04900
H894        H  0.45174998  0.51415619  0.47693326     0.08800
H895        H  0.56290130  0.52394626  0.47933593     0.10000
Cu896      Cu  0.47874510  0.56600237  0.50706216     0.44200
Cu897      Cu  0.57261257  0.57456739  0.50955044     0.42000
Cu898      Cu  0.53429123  0.60499628  0.53979533     0.43900
N899        N  0.46304099  0.59055917  0.52364019    -0.33600
N900        N  0.48317534  0.60475308  0.53573350    -0.27900
C901        C  0.46580399  0.61932364  0.54402321    -0.04000
C902        C  0.43321957  0.61377796  0.53677384     0.08300
C903        C  0.43235992  0.59562055  0.52391397     0.02100
H904        H  0.47650160  0.63348458  0.55441857     0.09700
H905        H  0.41131562  0.58721765  0.51526743     0.08800
N906        N  0.58807621  0.60913986  0.53989720    -0.35000
N907        N  0.60290074  0.60007408  0.52874213    -0.27200
C908        C  0.63950575  0.60998383  0.53200144    -0.02500
C909        C  0.64761646  0.62503474  0.54595289     0.06100
C910        C  0.61444917  0.62410289  0.55060747     0.04200
H911        H  0.65883844  0.60655980  0.52473802     0.09300
H912        H  0.61038977  0.63523500  0.56077781     0.08200
N913        N  0.01164578  0.46561345  0.49241180    -0.26200
N914        N  0.04280701  0.50019856  0.49176794    -0.34100
C915        C  0.04074125  0.51873732  0.47989579     0.02100
C916        C  0.00664299  0.49477722  0.47266112     0.08200
C917        C  0.98892072  0.46130188  0.48091489    -0.04900
H918        H  0.06244616  0.54763039  0.47680439     0.08800
H919        H  0.96139999  0.43580269  0.47878760     0.10000
Cu920      Cu  0.08665140  0.52092744  0.50720278     0.44200
Cu921      Cu  0.00147965  0.42665746  0.50932701     0.42000
Cu922      Cu  0.06912416  0.46537124  0.53997105     0.43900
N923        N  0.12683849  0.53630035  0.52386586    -0.33600
N924        N  0.12050221  0.51611253  0.53595403    -0.27900
C925        C  0.15251270  0.53305577  0.54425879    -0.04000
C926        C  0.18004884  0.56543822  0.53702961     0.08300
C927        C  0.16295019  0.56662227  0.52416532     0.02100
H928        H  0.15569695  0.52215261  0.55463340     0.09700
H929        H  0.17600653  0.58758419  0.51551858     0.08800
N930        N  0.01925420  0.41168118  0.53995787    -0.35000
N931        N  0.99580813  0.39666019  0.52867304    -0.27200
C932        C  0.96893727  0.36005463  0.53190866    -0.02500
C933        C  0.97527056  0.35216460  0.54597468     0.06100
C934        C  0.00737732  0.38545697  0.55071705     0.04200
H935        H  0.94652478  0.34052953  0.52453854     0.09300
H936        H  0.02225816  0.38966596  0.56097391     0.08200
C937        C  0.37171298  0.77816163  0.54102073    -0.12200
C938        C  0.35989681  0.74435118  0.54322598    -0.13800
C939        C  0.38479245  0.63820724  0.54328000    -0.12200
C940        C  0.40713304  0.62694171  0.54095876    -0.13800
C941        C  0.21957520  0.59091940  0.54120069    -0.12200
C942        C  0.25338872  0.61291921  0.54348503    -0.13800
C943        C  0.74413899  0.38388186  0.38916083    -0.12200
C944        C  0.77794425  0.40590716  0.39141411    -0.13800
C945        C  0.63722536  0.25280203  0.38906846    -0.12200
C946        C  0.62572471  0.21907344  0.39127063    -0.13800
C947        C  0.61319497  0.35950609  0.38879657    -0.12200
C948        C  0.59136847  0.37141079  0.39103811    -0.13800
C949        C  0.31014149  0.71991391  0.22239431    -0.12200
C950        C  0.29855917  0.74195707  0.22478269    -0.13800
C951        C  0.45032327  0.70730450  0.22348155    -0.12200
C952        C  0.41643603  0.69529439  0.22137981    -0.13800
C953        C  0.26284716  0.55493963  0.22469701    -0.12200
C954        C  0.28502564  0.58868307  0.22238101    -0.13800
C955        C  0.02771681  0.94751959  0.37602091    -0.12200
C956        C  0.03919713  0.92534385  0.37370655    -0.13800
C957        C  0.05193591  0.07854130  0.37638351    -0.12200
C958        C  0.07352445  0.11242387  0.37413759    -0.13800
C959        C  0.92098356  0.97156017  0.37746072    -0.12200
C960        C  0.88712728  0.95977350  0.37538898    -0.13800
C961        C  0.71831805  0.41166606  0.71053338    -0.12200
C962        C  0.74005008  0.44550969  0.70822034    -0.13800
C963        C  0.69341086  0.28035380  0.71051293    -0.12200
C964        C  0.70468879  0.25800219  0.70822779    -0.13800
C965        C  0.55350953  0.29364327  0.70774882    -0.12200
C966        C  0.58715256  0.30507177  0.71015307    -0.13800
C967        C  0.96156823  0.07544129  0.55814012    -0.12200
C968        C  0.97287930  0.05310801  0.55585376    -0.13800
C969        C  0.11194462  0.03825333  0.55791313    -0.12200
C970        C  0.07828261  0.02700445  0.55561571    -0.13800
C971        C  0.92462452  0.88750789  0.55842950    -0.12200
C972        C  0.94656529  0.92130916  0.55609747    -0.13800
C973        C  0.78118759  0.37239868  0.89083837    -0.12200
C974        C  0.74728043  0.36053786  0.88887301    -0.13800
C975        C  0.61549420  0.25453348  0.88937155    -0.12200
C976        C  0.59320438  0.22078403  0.89162982    -0.13800
C977        C  0.63032227  0.40842533  0.89199403    -0.12200
C978        C  0.64164101  0.38614935  0.88964902    -0.13800
C979        C  0.40765459  0.77825279  0.04101184    -0.12200
C980        C  0.38564311  0.74447105  0.04328380    -0.13800
C981        C  0.25445520  0.63780881  0.04322280    -0.12200
C982        C  0.22072774  0.62604756  0.04091630    -0.13800
C983        C  0.36076016  0.61335590  0.04354316    -0.12200
C984        C  0.37223445  0.59119434  0.04127810    -0.13800
C985        C  0.72192371  0.30738211  0.20995063    -0.12200
C986        C  0.74417098  0.29612757  0.20744926    -0.13800
C987        C  0.69704368  0.41339443  0.21041905    -0.12200
C988        C  0.70897729  0.44718845  0.20818852    -0.13800
C989        C  0.59054904  0.28199387  0.21021767    -0.12200
C990        C  0.55671071  0.25991799  0.20802336    -0.13800
C991        C  0.92713953  0.03879548  0.05751329    -0.12200
C992        C  0.94897108  0.02680982  0.05538308    -0.13800
C993        C  0.07990656  0.05123343  0.05648706    -0.12200
C994        C  0.11357955  0.07339938  0.05893325    -0.13800
C995        C  0.96119552  0.88617558  0.05728453    -0.12200
C996        C  0.97305374  0.92003342  0.05518499    -0.13800
C997        C  0.41292304  0.71777984  0.72233918    -0.12200
C998        C  0.44683246  0.73932332  0.72464700    -0.13800
C999        C  0.26007169  0.70627340  0.72366288    -0.12200
C1000       C  0.28220836  0.69468178  0.72145559    -0.13800
C1001       C  0.29316202  0.55340688  0.72413803    -0.12200
C1002       C  0.30504181  0.58718612  0.72185333    -0.13800
C1003       C  0.05323035  0.97086423  0.87678197    -0.12200
C1004       C  0.07537828  0.95928680  0.87459828    -0.13800
C1005       C  0.02891487  0.07740062  0.87619756    -0.12200
C1006       C  0.04048791  0.11110450  0.87389219    -0.13800
C1007       C  0.92203212  0.94628495  0.87625624    -0.12200
C1008       C  0.88811314  0.92448078  0.87409383    -0.13800
loop_ 
_geom_bond_atom_site_label_1 
_geom_bond_atom_site_label_2 
_geom_bond_distance 
_geom_bond_site_symmetry_2 
_ccdc_geom_bond_type 
C1            N2   1.358   1_455  A
C1            N6   1.358       .  A
C1         C1005   1.440       .  S
N2            C3   1.358   1_545  A
C3            N4   1.359       .  A
C3         C1007   1.440       .  S
N4            C5   1.359   1_655  A
C5            N6   1.359   1_565  A
C5         C1003   1.440       .  S
N7           C11   1.349       .  A
N7            N8   1.323       .  A
N7          Cu15   2.098       .  S
N8            C9   1.347       .  A
N8          Cu14   2.078       .  S
C9           C10   1.384       .  A
C9           H12   1.082       .  S
C10          C11   1.389       .  A
C10          C88   1.482       .  S
C11          H13   1.081       .  S
Cu14         N17   2.078       .  S
Cu15         N25   2.098       .  S
Cu16         N18   2.081       .  S
Cu16         N24   2.080       .  S
N17          C21   1.345       .  A
N17          N18   1.323       .  A
N18          C19   1.348       .  A
C19          C20   1.382       .  A
C19          H22   1.084       .  S
C20        C1004   1.442       .  S
C20          C21   1.380       .  A
C21          H23   1.083       .  S
N24          C28   1.346       .  A
N24          N25   1.325       .  A
N25          C26   1.349       .  A
C26          C27   1.386       .  A
C26          H29   1.083       .  S
C27          C28   1.381       .  A
C27         C465   1.473       .  S
C28          H30   1.083       .  S
N31          C35   1.349       .  A
N31          N32   1.323       .  A
N31         Cu39   2.096       .  S
N32          C33   1.347       .  A
N32         Cu38   2.079       .  S
C33          C34   1.384       .  A
C33          H36   1.081       .  S
C34          C35   1.389       .  A
C34         C112   1.482       .  S
C35          H37   1.081       .  S
Cu38         N41   2.079       .  S
Cu39         N49   2.096       .  S
Cu40         N42   2.078       .  S
Cu40         N48   2.078       .  S
N41          C45   1.345       .  A
N41          N42   1.323       .  A
N42          C43   1.348       .  A
C43          C44   1.382       .  A
C43          H46   1.084       .  S
C44        C1006   1.441       .  S
C44          C45   1.380       .  A
C45          H47   1.083       .  S
N48          C52   1.346       .  A
N48          N49   1.325       .  A
N49          C50   1.348       .  A
C50          C51   1.385       .  A
C50          H53   1.083       .  S
C51          C52   1.380       .  A
C51         C417   1.471       .  S
C52          H54   1.083       .  S
N55          C59   1.349       .  A
N55          N56   1.323       .  A
N55         Cu63   2.095       .  S
N56          C57   1.346       .  A
N56         Cu62   2.078       .  S
C57          C58   1.383       .  A
C57          H60   1.082       .  S
C58          C59   1.389       .  A
C58         C136   1.481       .  S
C59          H61   1.081       .  S
Cu62         N65   2.077       .  S
Cu63         N73   2.096       .  S
Cu64         N66   2.078       .  S
Cu64         N72   2.078       .  S
N65          C69   1.345       .  A
N65          N66   1.323       .  A
N66          C67   1.348       .  A
C67          C68   1.382       .  A
C67          H70   1.084       .  S
C68        C1008   1.442       .  S
C68          C69   1.380       .  A
C69          H71   1.083       .  S
N72          C76   1.345       .  A
N72          N73   1.325       .  A
N73          C74   1.348       .  A
C74          C75   1.385       .  A
C74          H77   1.083       .  S
C75          C76   1.380       .  A
C75         C441   1.471       .  S
C76          H78   1.083       .  S
C79          N80   1.358       .  A
C79          N84   1.358       .  A
C79        C1002   1.440       .  S
N80          C81   1.359       .  A
C81          N82   1.359       .  A
C81        C1000   1.441       .  S
N82          C83   1.359       .  A
C83          N84   1.358       .  A
C83         C997   1.441       .  S
N85          C89   1.349       .  A
N85          N86   1.323       .  A
N85         Cu93   2.097       .  S
N86          C87   1.347       .  A
N86         Cu92   2.079       .  S
C87          C88   1.384       .  A
C87          H90   1.082       .  S
C88          C89   1.389       .  A
C89          H91   1.081       .  S
Cu92         N95   2.078       .  S
Cu93        N103   2.097       .  S
Cu94         N96   2.081       .  S
Cu94        N102   2.081       .  S
N95          C99   1.345       .  A
N95          N96   1.323       .  A
N96          C97   1.348       .  A
C97          C98   1.383       .  A
C97         H100   1.084       .  S
C98         C999   1.442       .  S
C98          C99   1.380       .  A
C99         H101   1.083       .  S
N102        C106   1.346       .  A
N102        N103   1.325       .  A
N103        C104   1.349       .  A
C104        C105   1.385       .  A
C104        H107   1.083       .  S
C105        C106   1.380       .  A
C105        C621   1.472   1_455  S
C106        H108   1.083       .  S
N109        C113   1.349       .  A
N109        N110   1.323       .  A
N109       Cu117   2.096       .  S
N110        C111   1.347       .  A
N110       Cu116   2.081       .  S
C111        C112   1.385       .  A
C111        H114   1.081       .  S
C112        C113   1.388       .  A
C113        H115   1.081       .  S
Cu116       N119   2.081       .  S
Cu117       N127   2.096       .  S
Cu118       N120   2.078       .  S
Cu118       N126   2.078       .  S
N119        C123   1.345       .  A
N119        N120   1.323       .  A
N120        C121   1.348       .  A
C121        C122   1.382       .  A
C121        H124   1.084       .  S
C122       C1001   1.442       .  S
C122        C123   1.380       .  A
C123        H125   1.083       .  S
N126        C130   1.346       .  A
N126        N127   1.325       .  A
N127        C128   1.349       .  A
C128        C129   1.385       .  A
C128        H131   1.083       .  S
C129        C130   1.380       .  A
C129        C573   1.471       .  S
C130        H132   1.083       .  S
N133        C137   1.349       .  A
N133        N134   1.323       .  A
N133       Cu141   2.097       .  S
N134        C135   1.347       .  A
N134       Cu140   2.079       .  S
C135        C136   1.383       .  A
C135        H138   1.082       .  S
C136        C137   1.389       .  A
C137        H139   1.081       .  S
Cu140       N143   2.079       .  S
Cu141       N151   2.098       .  S
Cu142       N144   2.078       .  S
Cu142       N150   2.077       .  S
N143        C147   1.346       .  A
N143        N144   1.322       .  A
N144        C145   1.348       .  A
C145        C146   1.382       .  A
C145        H148   1.084       .  S
C146        C998   1.442       .  S
C146        C147   1.381       .  A
C147        H149   1.083       .  S
N150        C154   1.345       .  A
N150        N151   1.325       .  A
N151        C152   1.349       .  A
C152        C153   1.386       .  A
C152        H155   1.083       .  S
C153        C154   1.380       .  A
C153        C597   1.472   1_565  S
C154        H156   1.083       .  S
C157        N158   1.359       .  A
C157        N162   1.359   1_655  A
C157        C996   1.441       .  S
N158        C159   1.359   1_565  A
C159        N160   1.358   1_655  A
C159        C992   1.440       .  S
N160        C161   1.358       .  A
C161        N162   1.358   1_545  A
C161        C993   1.440       .  S
N163        C167   1.349       .  A
N163        N164   1.323       .  A
N163       Cu171   2.095       .  S
N164        C165   1.347       .  A
N164       Cu170   2.080       .  S
C165        C166   1.384       .  A
C165        H168   1.082       .  S
C166        C167   1.389       .  A
C166        C268   1.482       .  S
C167        H169   1.081       .  S
Cu170       N173   2.080       .  S
Cu171       N181   2.094       .  S
Cu172       N174   2.079       .  S
Cu172       N180   2.079       .  S
N173        C177   1.345       .  A
N173        N174   1.323       .  A
N174        C175   1.348       .  A
C175        C176   1.382       .  A
C175        H178   1.084       .  S
C176        C991   1.441       .  S
C176        C177   1.380       .  A
C177        H179   1.083       .  S
N180        C184   1.346       .  A
N180        N181   1.325       .  A
N181        C182   1.348       .  A
C182        C183   1.384       .  A
C182        H185   1.083       .  S
C183        C184   1.380       .  A
C183        C339   1.470       .  S
C184        H186   1.083       .  S
N187        C191   1.350       .  A
N187        N188   1.323       .  A
N187       Cu195   2.097       .  S
N188        C189   1.347       .  A
N188       Cu194   2.079       .  S
C189        C190   1.384       .  A
C189        H192   1.082       .  S
C190        C191   1.389       .  A
C190        C244   1.482       .  S
C191        H193   1.081       .  S
Cu194       N197   2.079       .  S
Cu195       N205   2.097       .  S
Cu196       N198   2.077       .  S
Cu196       N204   2.076       .  S
N197        C201   1.345       .  A
N197        N198   1.323       .  A
N198        C199   1.348       .  A
C199        C200   1.382       .  A
C199        H202   1.084       .  S
C200        C994   1.441       .  S
C200        C201   1.380       .  A
C201        H203   1.083       .  S
N204        C208   1.346       .  A
N204        N205   1.325       .  A
N205        C206   1.348       .  A
C206        C207   1.385       .  A
C206        H209   1.083       .  S
C207        C208   1.380       .  A
C207        C363   1.471       .  S
C208        H210   1.083       .  S
N211        C215   1.349       .  A
N211        N212   1.323       .  A
N211       Cu219   2.098       .  S
N212        C213   1.347       .  A
N212       Cu218   2.079       .  S
C213        C214   1.384       .  A
C213        H216   1.082       .  S
C214        C215   1.389       .  A
C214        C292   1.482       .  S
C215        H217   1.081       .  S
Cu218       N221   2.079       .  S
Cu219       N229   2.099       .  S
Cu220       N222   2.081       .  S
Cu220       N228   2.080       .  S
N221        C225   1.345       .  A
N221        N222   1.323       .  A
N222        C223   1.348       .  A
C223        C224   1.383       .  A
C223        H226   1.084       .  S
C224        C995   1.442       .  S
C224        C225   1.380       .  A
C225        H227   1.083       .  S
N228        C232   1.346       .  A
N228        N229   1.325       .  A
N229        C230   1.349       .  A
C230        C231   1.385       .  A
C230        H233   1.083       .  S
C231        C232   1.381       .  A
C231        C387   1.473       .  S
C232        H234   1.083       .  S
C235        N236   1.358       .  A
C235        N240   1.358       .  A
C235        C987   1.439       .  S
N236        C237   1.358       .  A
C237        N238   1.358       .  A
C237        C985   1.439       .  S
N238        C239   1.359       .  A
C239        N240   1.359       .  A
C239        C989   1.440       .  S
N241        C245   1.349       .  A
N241        N242   1.323       .  A
N241       Cu249   2.097       .  S
N242        C243   1.347       .  A
N242       Cu248   2.080       .  S
C243        C244   1.384       .  A
C243        H246   1.082       .  S
C244        C245   1.389       .  A
C245        H247   1.081       .  S
Cu248       N251   2.080       .  S
Cu249       N259   2.097       .  S
Cu250       N252   2.078       .  S
Cu250       N258   2.077       .  S
N251        C255   1.345       .  A
N251        N252   1.323       .  A
N252        C253   1.348       .  A
C253        C254   1.382       .  A
C253        H256   1.084       .  S
C254        C990   1.441       .  S
C254        C255   1.380       .  A
C255        H257   1.083       .  S
N258        C262   1.345       .  A
N258        N259   1.325       .  A
N259        C260   1.349       .  A
C260        C261   1.385       .  A
C260        H263   1.083       .  S
C261        C262   1.380       .  A
C261        C729   1.471   1_545  S
C262        H264   1.083       .  S
N265        C269   1.349       .  A
N265        N266   1.323       .  A
N265       Cu273   2.099       .  S
N266        C267   1.347       .  A
N266       Cu272   2.078       .  S
C267        C268   1.384       .  A
C267        H270   1.082       .  S
C268        C269   1.389       .  A
C269        H271   1.081       .  S
Cu272       N275   2.077       .  S
Cu273       N283   2.100       .  S
Cu274       N276   2.078       .  S
Cu274       N282   2.078       .  S
N275        C279   1.345       .  A
N275        N276   1.323       .  A
N276        C277   1.348       .  A
C277        C278   1.382       .  A
C277        H280   1.084       .  S
C278        C986   1.440       .  S
C278        C279   1.379       .  A
C279        H281   1.083       .  S
N282        C286   1.346       .  A
N282        N283   1.325       .  A
N283        C284   1.349       .  A
C284        C285   1.386       .  A
C284        H287   1.083       .  S
C285        C286   1.381       .  A
C285        C777   1.474   1_655  S
C286        H288   1.083       .  S
N289        C293   1.349       .  A
N289        N290   1.323       .  A
N289       Cu297   2.099       .  S
N290        C291   1.347       .  A
N290       Cu296   2.079       .  S
C291        C292   1.384       .  A
C291        H294   1.082       .  S
C292        C293   1.389       .  A
C293        H295   1.081       .  S
Cu296       N299   2.078       .  S
Cu297       N307   2.099       .  S
Cu298       N300   2.078       .  S
Cu298       N306   2.078       .  S
N299        C303   1.345       .  A
N299        N300   1.323       .  A
N300        C301   1.348       .  A
C301        C302   1.382       .  A
C301        H304   1.084       .  S
C302        C988   1.440       .  S
C302        C303   1.380       .  A
C303        H305   1.083       .  S
N306        C310   1.346       .  A
N306        N307   1.324       .  A
N307        C308   1.349       .  A
C308        C309   1.386       .  A
C308        H311   1.083       .  S
C309        C310   1.381       .  A
C309        C753   1.473       .  S
C310        H312   1.083       .  S
C313        N314   1.358       .  A
C313        N318   1.358       .  A
C313        C981   1.438       .  S
N314        C315   1.358       .  A
C315        N316   1.358       .  A
C315        C983   1.438       .  S
N316        C317   1.358       .  A
C317        N318   1.358       .  A
C317        C980   1.439       .  S
N319        C323   1.349   1_565  A
N319        N320   1.323       .  A
N319       Cu327   2.094   1_556  S
N320        C321   1.347       .  A
N320       Cu326   2.081   1_556  S
C321        C322   1.385       .  A
C321        H324   1.082       .  S
C322        C323   1.388   1_565  A
C322        C448   1.481   1_565  S
C323        H325   1.081       .  S
Cu326       N329   2.080       .  S
Cu327       N337   2.094   1_565  S
Cu328       N330   2.077       .  S
Cu328       N336   2.077       .  S
N329        C333   1.345       .  A
N329        N330   1.323       .  A
N330        C331   1.348       .  A
C331        C332   1.381       .  A
C331        H334   1.084       .  S
C332        C979   1.441       .  S
C332        C333   1.380       .  A
C333        H335   1.083       .  S
N336        C340   1.346       .  A
N336        N337   1.325   1_565  A
N337        C338   1.348       .  A
C338        C339   1.384       .  A
C338        H341   1.083       .  S
C339        C340   1.380   1_545  A
C340        H342   1.083       .  S
N343        C347   1.349       .  A
N343        N344   1.323       .  A
N343       Cu351   2.098   1_556  S
N344        C345   1.346       .  A
N344       Cu350   2.076   1_556  S
C345        C346   1.383       .  A
C345        H348   1.082       .  S
C346        C347   1.389       .  A
C346        C424   1.481       .  S
C347        H349   1.081       .  S
Cu350       N353   2.075       .  S
Cu351       N361   2.098       .  S
Cu352       N354   2.076       .  S
Cu352       N360   2.076       .  S
N353        C357   1.345       .  A
N353        N354   1.323       .  A
N354        C355   1.347       .  A
C355        C356   1.381       .  A
C355        H358   1.084       .  S
C356        C984   1.440       .  S
C356        C357   1.379       .  A
C357        H359   1.083       .  S
N360        C364   1.345       .  A
N360        N361   1.325       .  A
N361        C362   1.349       .  A
C362        C363   1.385       .  A
C362        H365   1.083       .  S
C363        C364   1.380       .  A
C364        H366   1.083       .  S
N367        C371   1.349   1_455  A
N367        N368   1.323       .  A
N367       Cu375   2.100   1_556  S
N368        C369   1.347       .  A
N368       Cu374   2.077   1_556  S
C369        C370   1.384       .  A
C369        H372   1.081       .  S
C370        C371   1.389   1_455  A
C370        C400   1.481   1_455  S
C371        H373   1.081       .  S
Cu374       N377   2.076       .  S
Cu375       N385   2.100   1_455  S
Cu376       N378   2.076       .  S
Cu376       N384   2.076       .  S
N377        C381   1.345       .  A
N377        N378   1.323       .  A
N378        C379   1.347       .  A
C379        C380   1.381       .  A
C379        H382   1.084       .  S
C380        C982   1.439       .  S
C380        C381   1.380       .  A
C381        H383   1.083       .  S
N384        C388   1.346       .  A
N384        N385   1.325   1_455  A
N385        C386   1.349       .  A
C386        C387   1.386       .  A
C386        H389   1.083       .  S
C387        C388   1.380   1_655  A
C388        H390   1.083       .  S
C391        N392   1.358       .  A
C391        N396   1.359       .  A
C391        C974   1.440       .  S
N392        C393   1.358       .  A
C393        N394   1.358       .  A
C393        C978   1.440       .  S
N394        C395   1.359       .  A
C395        N396   1.359       .  A
C395        C975   1.440       .  S
N397        C401   1.349   1_655  A
N397        N398   1.323       .  A
N397       Cu405   2.097       .  S
N398        C399   1.347       .  A
N398       Cu404   2.078       .  S
C399        C400   1.384       .  A
C399        H402   1.081       .  S
C400        C401   1.389   1_655  A
C401        H403   1.081       .  S
Cu404       N407   2.077       .  S
Cu405       N415   2.097   1_655  S
Cu406       N408   2.077       .  S
Cu406       N414   2.077       .  S
N407        C411   1.345       .  A
N407        N408   1.323       .  A
N408        C409   1.348       .  A
C409        C410   1.382       .  A
C409        H412   1.084       .  S
C410        C973   1.441       .  S
C410        C411   1.380       .  A
C411        H413   1.083       .  S
N414        C418   1.345       .  A
N414        N415   1.325   1_655  A
N415        C416   1.349       .  A
C416        C417   1.385       .  A
C416        H419   1.083       .  S
C417        C418   1.380   1_455  A
C418        H420   1.083       .  S
N421        C425   1.349       .  A
N421        N422   1.323       .  A
N421       Cu429   2.096       .  S
N422        C423   1.347       .  A
N422       Cu428   2.078       .  S
C423        C424   1.383       .  A
C423        H426   1.082       .  S
C424        C425   1.389       .  A
C425        H427   1.081       .  S
Cu428       N431   2.077       .  S
Cu429       N439   2.096       .  S
Cu430       N432   2.078       .  S
Cu430       N438   2.078       .  S
N431        C435   1.345       .  A
N431        N432   1.323       .  A
N432        C433   1.348       .  A
C433        C434   1.382       .  A
C433        H436   1.084       .  S
C434        C977   1.441       .  S
C434        C435   1.380       .  A
C435        H437   1.083       .  S
N438        C442   1.345       .  A
N438        N439   1.325       .  A
N439        C440   1.349       .  A
C440        C441   1.385       .  A
C440        H443   1.083       .  S
C441        C442   1.380       .  A
C442        H444   1.083       .  S
N445        C449   1.349   1_545  A
N445        N446   1.323       .  A
N445       Cu453   2.096       .  S
N446        C447   1.347       .  A
N446       Cu452   2.081       .  S
C447        C448   1.385       .  A
C447        H450   1.082       .  S
C448        C449   1.388   1_545  A
C449        H451   1.081       .  S
Cu452       N455   2.080       .  S
Cu453       N463   2.096   1_545  S
Cu454       N456   2.080       .  S
Cu454       N462   2.080       .  S
N455        C459   1.345       .  A
N455        N456   1.323       .  A
N456        C457   1.348       .  A
C457        C458   1.382       .  A
C457        H460   1.084       .  S
C458        C976   1.442       .  S
C458        C459   1.380       .  A
C459        H461   1.083       .  S
N462        C466   1.346       .  A
N462        N463   1.324   1_545  A
N463        C464   1.349       .  A
C464        C465   1.386       .  A
C464        H467   1.083       .  S
C465        C466   1.381   1_565  A
C466        H468   1.083       .  S
C469        N470   1.359       .  A
C469        N474   1.358   1_545  A
C469        C970   1.440       .  S
N470        C471   1.359   1_455  A
C471        N472   1.359   1_545  A
C471        C968   1.441       .  S
N472        C473   1.359       .  A
C473        N474   1.358   1_655  A
C473        C972   1.441       .  S
N475        C479   1.349       .  A
N475        N476   1.323       .  A
N475       Cu483   2.096       .  S
N476        C477   1.347       .  A
N476       Cu482   2.080       .  S
C477        C478   1.384       .  A
C477        H480   1.082       .  S
C478        C479   1.389       .  A
C478        C580   1.482       .  S
C479        H481   1.081       .  S
Cu482       N485   2.080       .  S
Cu483       N493   2.096       .  S
Cu484       N486   2.080       .  S
Cu484       N492   2.080       .  S
N485        C489   1.345       .  A
N485        N486   1.323       .  A
N486        C487   1.348       .  A
C487        C488   1.383       .  A
C487        H490   1.084       .  S
C488        C967   1.443       .  S
C488        C489   1.380       .  A
C489        H491   1.083       .  S
N492        C496   1.346       .  A
N492        N493   1.325       .  A
N493        C494   1.349       .  A
C494        C495   1.385       .  A
C494        H497   1.083       .  S
C495        C496   1.380       .  A
C495        C933   1.471       .  S
C496        H498   1.083       .  S
N499        C503   1.350       .  A
N499        N500   1.323       .  A
N499       Cu507   2.098       .  S
N500        C501   1.347       .  A
N500       Cu506   2.078       .  S
C501        C502   1.384       .  A
C501        H504   1.081       .  S
C502        C503   1.389       .  A
C502        C556   1.481       .  S
C503        H505   1.081       .  S
Cu506       N509   2.078       .  S
Cu507       N517   2.098       .  S
Cu508       N510   2.079       .  S
Cu508       N516   2.079       .  S
N509        C513   1.345       .  A
N509        N510   1.323       .  A
N510        C511   1.348       .  A
C511        C512   1.382       .  A
C511        H514   1.084       .  S
C512        C969   1.441       .  S
C512        C513   1.380       .  A
C513        H515   1.083       .  S
N516        C520   1.346       .  A
N516        N517   1.325       .  A
N517        C518   1.349       .  A
C518        C519   1.385       .  A
C518        H521   1.083       .  S
C519        C520   1.381       .  A
C519        C885   1.473       .  S
C520        H522   1.083       .  S
N523        C527   1.349       .  A
N523        N524   1.323       .  A
N523       Cu531   2.094       .  S
N524        C525   1.347       .  A
N524       Cu530   2.081       .  S
C525        C526   1.384       .  A
C525        H528   1.082       .  S
C526        C527   1.388       .  A
C526        C604   1.482       .  S
C527        H529   1.081       .  S
Cu530       N533   2.081       .  S
Cu531       N541   2.094       .  S
Cu532       N534   2.079       .  S
Cu532       N540   2.079       .  S
N533        C537   1.346       .  A
N533        N534   1.323       .  A
N534        C535   1.348       .  A
C535        C536   1.382       .  A
C535        H538   1.084       .  S
C536        C971   1.442       .  S
C536        C537   1.381       .  A
C537        H539   1.083       .  S
N540        C544   1.346       .  A
N540        N541   1.325       .  A
N541        C542   1.348       .  A
C542        C543   1.385       .  A
C542        H545   1.083       .  S
C543        C544   1.380       .  A
C543        C909   1.471       .  S
C544        H546   1.083       .  S
C547        N548   1.358       .  A
C547        N552   1.358       .  A
C547        C966   1.439       .  S
N548        C549   1.358       .  A
C549        N550   1.359       .  A
C549        C961   1.440       .  S
N550        C551   1.359       .  A
C551        N552   1.358       .  A
C551        C963   1.441       .  S
N553        C557   1.349       .  A
N553        N554   1.323       .  A
N553       Cu561   2.097       .  S
N554        C555   1.347       .  A
N554       Cu560   2.079       .  S
C555        C556   1.384       .  A
C555        H558   1.082       .  S
C556        C557   1.389       .  A
C557        H559   1.081       .  S
Cu560       N563   2.079       .  S
Cu561       N571   2.097       .  S
Cu562       N564   2.077       .  S
Cu562       N570   2.077       .  S
N563        C567   1.345       .  A
N563        N564   1.323       .  A
N564        C565   1.348       .  A
C565        C566   1.382       .  A
C565        H568   1.084       .  S
C566        C965   1.441       .  S
C566        C567   1.380       .  A
C567        H569   1.083       .  S
N570        C574   1.346       .  A
N570        N571   1.325       .  A
N571        C572   1.349       .  A
C572        C573   1.385       .  A
C572        H575   1.083       .  S
C573        C574   1.380       .  A
C574        H576   1.083       .  S
N577        C581   1.349       .  A
N577        N578   1.322       .  A
N577       Cu585   2.097       .  S
N578        C579   1.347       .  A
N578       Cu584   2.078       .  S
C579        C580   1.384       .  A
C579        H582   1.082       .  S
C580        C581   1.389       .  A
C581        H583   1.081       .  S
Cu584       N587   2.077       .  S
Cu585       N595   2.097       .  S
Cu586       N588   2.081       .  S
Cu586       N594   2.081       .  S
N587        C591   1.345       .  A
N587        N588   1.323       .  A
N588        C589   1.349       .  A
C589        C590   1.383       .  A
C589        H592   1.084       .  S
C590        C964   1.442       .  S
C590        C591   1.379       .  A
C591        H593   1.083       .  S
N594        C598   1.346       .  A
N594        N595   1.325       .  A
N595        C596   1.348       .  A
C596        C597   1.385       .  A
C596        H599   1.083       .  S
C597        C598   1.381       .  A
C598        H600   1.083       .  S
N601        C605   1.349       .  A
N601        N602   1.323       .  A
N601       Cu609   2.097       .  S
N602        C603   1.347       .  A
N602       Cu608   2.082       .  S
C603        C604   1.384       .  A
C603        H606   1.082       .  S
C604        C605   1.388       .  A
C605        H607   1.081       .  S
Cu608       N611   2.081       .  S
Cu609       N619   2.097       .  S
Cu610       N612   2.077       .  S
Cu610       N618   2.077       .  S
N611        C615   1.346       .  A
N611        N612   1.323       .  A
N612        C613   1.348       .  A
C613        C614   1.382       .  A
C613        H616   1.084       .  S
C614        C962   1.442       .  S
C614        C615   1.381       .  A
C615        H617   1.083       .  S
N618        C622   1.345       .  A
N618        N619   1.324       .  A
N619        C620   1.349       .  A
C620        C621   1.386       .  A
C620        H623   1.083       .  S
C621        C622   1.380       .  A
C622        H624   1.083       .  S
C625        N626   1.358   1_565  A
C625        N630   1.359       .  A
C625        C959   1.440       .  S
N626        C627   1.358   1_655  A
C627        N628   1.359       .  A
C627        C957   1.439       .  S
N628        C629   1.359   1_545  A
C629        N630   1.359   1_455  A
C629        C955   1.441       .  S
N631        C635   1.350       .  A
N631        N632   1.323       .  A
N631       Cu639   2.097       .  S
N632        C633   1.347       .  A
N632       Cu638   2.081       .  S
C633        C634   1.384       .  A
C633        H636   1.082       .  S
C634        C635   1.389       .  A
C634        C712   1.482       .  S
C635        H637   1.081       .  S
Cu638       N641   2.080       .  S
Cu639       N649   2.097       .  S
Cu640       N642   2.078       .  S
Cu640       N648   2.078       .  S
N641        C645   1.345       .  A
N641        N642   1.323       .  A
N642        C643   1.348       .  A
C643        C644   1.382       .  A
C643        H646   1.084       .  S
C644        C956   1.442       .  S
C644        C645   1.380       .  A
C645        H647   1.083       .  S
N648        C652   1.346       .  A
N648        N649   1.325       .  A
N649        C650   1.349       .  A
C650        C651   1.385       .  A
C650        H653   1.083       .  S
C651        C652   1.380       .  A
C651        C807   1.470       .  S
C652        H654   1.083       .  S
N655        C659   1.350       .  A
N655        N656   1.323       .  A
N655       Cu663   2.100       .  S
N656        C657   1.347       .  A
N656       Cu662   2.078       .  S
C657        C658   1.384       .  A
C657        H660   1.082       .  S
C658        C659   1.390       .  A
C658        C760   1.483       .  S
C659        H661   1.081       .  S
Cu662       N665   2.078       .  S
Cu663       N673   2.100       .  S
Cu664       N666   2.077       .  S
Cu664       N672   2.077       .  S
N665        C669   1.345       .  A
N665        N666   1.323       .  A
N666        C667   1.347       .  A
C667        C668   1.381       .  A
C667        H670   1.084       .  S
C668        C958   1.440       .  S
C668        C669   1.380       .  A
C669        H671   1.083       .  S
N672        C676   1.346       .  A
N672        N673   1.325       .  A
N673        C674   1.349       .  A
C674        C675   1.385       .  A
C674        H677   1.083       .  S
C675        C676   1.381       .  A
C675        C831   1.473       .  S
C676        H678   1.083       .  S
N679        C683   1.349       .  A
N679        N680   1.323       .  A
N679       Cu687   2.099       .  S
N680        C681   1.347       .  A
N680       Cu686   2.080       .  S
C681        C682   1.384       .  A
C681        H684   1.082       .  S
C682        C683   1.389       .  A
C682        C736   1.483       .  S
C683        H685   1.081       .  S
Cu686       N689   2.079       .  S
Cu687       N697   2.099       .  S
Cu688       N690   2.080       .  S
Cu688       N696   2.079       .  S
N689        C693   1.345       .  A
N689        N690   1.323       .  A
N690        C691   1.348       .  A
C691        C692   1.382       .  A
C691        H694   1.084       .  S
C692        C960   1.441       .  S
C692        C693   1.379       .  A
C693        H695   1.083       .  S
N696        C700   1.346       .  A
N696        N697   1.325       .  A
N697        C698   1.349       .  A
C698        C699   1.386       .  A
C698        H701   1.083       .  S
C699        C700   1.380       .  A
C699        C855   1.473       .  S
C700        H702   1.083       .  S
C703        N704   1.359       .  A
C703        N708   1.358       .  A
C703        C952   1.440       .  S
N704        C705   1.359       .  A
C705        N706   1.358       .  A
C705        C954   1.440       .  S
N706        C707   1.358       .  A
C707        N708   1.358       .  A
C707        C949   1.440       .  S
N709        C713   1.349       .  A
N709        N710   1.323       .  A
N709       Cu717   2.098       .  S
N710        C711   1.347       .  A
N710       Cu716   2.080       .  S
C711        C712   1.384       .  A
C711        H714   1.082       .  S
C712        C713   1.389       .  A
C713        H715   1.081       .  S
Cu716       N719   2.080       .  S
Cu717       N727   2.098       .  S
Cu718       N720   2.077       .  S
Cu718       N726   2.076       .  S
N719        C723   1.345       .  A
N719        N720   1.323       .  A
N720        C721   1.348       .  A
C721        C722   1.382       .  A
C721        H724   1.084       .  S
C722        C950   1.441       .  S
C722        C723   1.380       .  A
C723        H725   1.083       .  S
N726        C730   1.346       .  A
N726        N727   1.325       .  A
N727        C728   1.349       .  A
C728        C729   1.385       .  A
C728        H731   1.083       .  S
C729        C730   1.380       .  A
C730        H732   1.083       .  S
N733        C737   1.350       .  A
N733        N734   1.323       .  A
N733       Cu741   2.100       .  S
N734        C735   1.347       .  A
N734       Cu740   2.081       .  S
C735        C736   1.384       .  A
C735        H738   1.082       .  S
C736        C737   1.389       .  A
C737        H739   1.081       .  S
Cu740       N743   2.080       .  S
Cu741       N751   2.100       .  S
Cu742       N744   2.078       .  S
Cu742       N750   2.077       .  S
N743        C747   1.345       .  A
N743        N744   1.323       .  A
N744        C745   1.348       .  A
C745        C746   1.382       .  A
C745        H748   1.084       .  S
C746        C951   1.441       .  S
C746        C747   1.380       .  A
C747        H749   1.083       .  S
N750        C754   1.346       .  A
N750        N751   1.325       .  A
N751        C752   1.349       .  A
C752        C753   1.386       .  A
C752        H755   1.083       .  S
C753        C754   1.380       .  A
C754        H756   1.083       .  S
N757        C761   1.350       .  A
N757        N758   1.323       .  A
N757       Cu765   2.101       .  S
N758        C759   1.347       .  A
N758       Cu764   2.079       .  S
C759        C760   1.384       .  A
C759        H762   1.082       .  S
C760        C761   1.390       .  A
C761        H763   1.081       .  S
Cu764       N767   2.078       .  S
Cu765       N775   2.101       .  S
Cu766       N768   2.080       .  S
Cu766       N774   2.080       .  S
N767        C771   1.345       .  A
N767        N768   1.323       .  A
N768        C769   1.348       .  A
C769        C770   1.382       .  A
C769        H772   1.084       .  S
C770        C953   1.442       .  S
C770        C771   1.380       .  A
C771        H773   1.083       .  S
N774        C778   1.346       .  A
N774        N775   1.325       .  A
N775        C776   1.349       .  A
C776        C777   1.386       .  A
C776        H779   1.083       .  S
C777        C778   1.381       .  A
C778        H780   1.083       .  S
C781        N782   1.358       .  A
C781        N786   1.358       .  A
C781        C945   1.439       .  S
N782        C783   1.358       .  A
C783        N784   1.358       .  A
C783        C947   1.439       .  S
N784        C785   1.358       .  A
C785        N786   1.358       .  A
C785        C943   1.439       .  S
N787        C791   1.349   1_655  A
N787        N788   1.323       .  A
N787       Cu795   2.096       .  S
N788        C789   1.347       .  A
N788       Cu794   2.080       .  S
C789        C790   1.384       .  A
C789        H792   1.082       .  S
C790        C791   1.389   1_655  A
C790        C916   1.482   1_655  S
C791        H793   1.081       .  S
Cu794       N797   2.080       .  S
Cu795       N805   2.096   1_655  S
Cu796       N798   2.076       .  S
Cu796       N804   2.076       .  S
N797        C801   1.345       .  A
N797        N798   1.323       .  A
N798        C799   1.348       .  A
C799        C800   1.382       .  A
C799        H802   1.084       .  S
C800        C944   1.441       .  S
C800        C801   1.380       .  A
C801        H803   1.083       .  S
N804        C808   1.345       .  A
N804        N805   1.325   1_655  A
N805        C806   1.349       .  A
C806        C807   1.385       .  A
C806        H809   1.083       .  S
C807        C808   1.379   1_455  A
C808        H810   1.083       .  S
N811        C815   1.349       .  A
N811        N812   1.323       .  A
N811       Cu819   2.097       .  S
N812        C813   1.346       .  A
N812       Cu818   2.075       .  S
C813        C814   1.383       .  A
C813        H816   1.082       .  S
C814        C815   1.389       .  A
C814        C892   1.480       .  S
C815        H817   1.081       .  S
Cu818       N821   2.074       .  S
Cu819       N829   2.097       .  S
Cu820       N822   2.078       .  S
Cu820       N828   2.078       .  S
N821        C825   1.344       .  A
N821        N822   1.323       .  A
N822        C823   1.348       .  A
C823        C824   1.382       .  A
C823        H826   1.084       .  S
C824        C948   1.440       .  S
C824        C825   1.379       .  A
C825        H827   1.083       .  S
N828        C832   1.346       .  A
N828        N829   1.324       .  A
N829        C830   1.349       .  A
C830        C831   1.385       .  A
C830        H833   1.083       .  S
C831        C832   1.381       .  A
C832        H834   1.083       .  S
N835        C839   1.350   1_545  A
N835        N836   1.323       .  A
N835       Cu843   2.101       .  S
N836        C837   1.347       .  A
N836       Cu842   2.080       .  S
C837        C838   1.384       .  A
C837        H840   1.082       .  S
C838        C839   1.390   1_545  A
C838        C868   1.483   1_545  S
C839        H841   1.081       .  S
Cu842       N845   2.079       .  S
Cu843       N853   2.101   1_545  S
Cu844       N846   2.078       .  S
Cu844       N852   2.078       .  S
N845        C849   1.345       .  A
N845        N846   1.323       .  A
N846        C847   1.348       .  A
C847        C848   1.382       .  A
C847        H850   1.084       .  S
C848        C946   1.441       .  S
C848        C849   1.380       .  A
C849        H851   1.083       .  S
N852        C856   1.346       .  A
N852        N853   1.325   1_545  A
N853        C854   1.349       .  A
C854        C855   1.386       .  A
C854        H857   1.083       .  S
C855        C856   1.380   1_565  A
C856        H858   1.083       .  S
C859        N860   1.358       .  A
C859        N864   1.358       .  A
C859        C938   1.441       .  S
N860        C861   1.358       .  A
C861        N862   1.359       .  A
C861        C939   1.440       .  S
N862        C863   1.359       .  A
C863        N864   1.359       .  A
C863        C942   1.440       .  S
N865        C869   1.350   1_565  A
N865        N866   1.323       .  A
N865       Cu873   2.100       .  S
N866        C867   1.348       .  A
N866       Cu872   2.081       .  S
C867        C868   1.384       .  A
C867        H870   1.082       .  S
C868        C869   1.389   1_565  A
C869        H871   1.081       .  S
Cu872       N875   2.080       .  S
Cu873       N883   2.100   1_565  S
Cu874       N876   2.079       .  S
Cu874       N882   2.079       .  S
N875        C879   1.345       .  A
N875        N876   1.323       .  A
N876        C877   1.348       .  A
C877        C878   1.382       .  A
C877        H880   1.084       .  S
C878        C937   1.442       .  S
C878        C879   1.380       .  A
C879        H881   1.083       .  S
N882        C886   1.346       .  A
N882        N883   1.325   1_565  A
N883        C884   1.349       .  A
C884        C885   1.386       .  A
C884        H887   1.083       .  S
C885        C886   1.380   1_545  A
C886        H888   1.083       .  S
N889        C893   1.349       .  A
N889        N890   1.323       .  A
N889       Cu897   2.094       .  S
N890        C891   1.347       .  A
N890       Cu896   2.077       .  S
C891        C892   1.384       .  A
C891        H894   1.082       .  S
C892        C893   1.388       .  A
C893        H895   1.081       .  S
Cu896       N899   2.077       .  S
Cu897       N907   2.094       .  S
Cu898       N900   2.080       .  S
Cu898       N906   2.080       .  S
N899        C903   1.345       .  A
N899        N900   1.323       .  A
N900        C901   1.348       .  A
C901        C902   1.382       .  A
C901        H904   1.084       .  S
C902        C940   1.442       .  S
C902        C903   1.380       .  A
C903        H905   1.083       .  S
N906        C910   1.346       .  A
N906        N907   1.325       .  A
N907        C908   1.348       .  A
C908        C909   1.385       .  A
C908        H911   1.083       .  S
C909        C910   1.380       .  A
C910        H912   1.083       .  S
N913        C917   1.349   1_455  A
N913        N914   1.323       .  A
N913       Cu921   2.096       .  S
N914        C915   1.347       .  A
N914       Cu920   2.081       .  S
C915        C916   1.384       .  A
C915        H918   1.081       .  S
C916        C917   1.388   1_455  A
C917        H919   1.081       .  S
Cu920       N923   2.080       .  S
Cu921       N931   2.096   1_455  S
Cu922       N924   2.078       .  S
Cu922       N930   2.077       .  S
N923        C927   1.345       .  A
N923        N924   1.323       .  A
N924        C925   1.348       .  A
C925        C926   1.382       .  A
C925        H928   1.084       .  S
C926        C941   1.442       .  S
C926        C927   1.380       .  A
C927        H929   1.083       .  S
N930        C934   1.346       .  A
N930        N931   1.325   1_455  A
N931        C932   1.348       .  A
C932        C933   1.385       .  A
C932        H935   1.083       .  S
C933        C934   1.380   1_655  A
C934        H936   1.083       .  S
C937        C938   1.209       .  T
C939        C940   1.209       .  T
C941        C942   1.209       .  T
C943        C944   1.208       .  T
C945        C946   1.208       .  T
C947        C948   1.208       .  T
C949        C950   1.208       .  T
C951        C952   1.208       .  T
C953        C954   1.209       .  T
C955        C956   1.209       .  T
C957        C958   1.208       .  T
C959        C960   1.208       .  T
C961        C962   1.209       .  T
C963        C964   1.209       .  T
C965        C966   1.208       .  T
C967        C968   1.209       .  T
C969        C970   1.208       .  T
C971        C972   1.209       .  T
C973        C974   1.208       .  T
C975        C976   1.209       .  T
C977        C978   1.208       .  T
C979        C980   1.208       .  T
C981        C982   1.207       .  T
C983        C984   1.207       .  T
C985        C986   1.208       .  T
C987        C988   1.208       .  T
C989        C990   1.208       .  T
C991        C992   1.208       .  T
C993        C994   1.208       .  T
C995        C996   1.209       .  T
C997        C998   1.209       .  T
C999       C1000   1.209       .  T
C1001      C1002   1.208       .  T
C1003      C1004   1.209       .  T
C1005      C1006   1.208       .  T
C1007      C1008   1.209       .  T
