geometry optimzed in LAMMPS
_audit_creation_date              2020-12-01 
_audit_creation_method            'lammps2cif' 
_symmetry_space_group_name_H-M    'P1' 
_symmetry_Int_Tables_number       1 
_symmetry_cell_setting            triclinic 
loop_ 
_symmetry_equiv_pos_as_xyz 
  x,y,z 
_cell_length_a                    40.58683011 
_cell_length_b                    39.94090621776246 
_cell_length_c                    45.33280331910032 
_cell_angle_alpha                 90.14563440035484 
_cell_angle_beta                  89.69351789687119 
_cell_angle_gamma                 90.05671517475676 
loop_ 
_atom_site_label 
_atom_site_type_symbol 
_atom_site_fract_x 
_atom_site_fract_y 
_atom_site_fract_z 
_atom_site_charge 
O1          O  0.30474739  0.26570625  0.58002284    -0.55000
C2          C  0.33274909  0.34460570  0.53003647     0.77600
O3          O  0.30960466  0.38131446  0.59707653    -0.56100
C4          C  0.29689676  0.25867944  0.60644090     0.77600
C5          C  0.38819639  0.33641580  0.62369236     0.80000
Cd6        Cd  0.32809158  0.32309817  0.59160151     1.37500
O7          O  0.35872267  0.33881244  0.54455547    -0.55000
O8          O  0.38925995  0.32415929  0.59788288    -0.53800
C9          C  0.28029709  0.37400480  0.60403448     0.80000
O10         O  0.35990110  0.34066086  0.63488478    -0.56200
O11         O  0.30598954  0.33614271  0.54232599    -0.54600
O12         O  0.30799685  0.27828062  0.62590770    -0.54600
O13         O  0.27427528  0.34359352  0.60907145    -0.53800
C14         C  0.14100828  0.45936821  0.55233921     0.32800
C15         C  0.18258105  0.48253790  0.51105746     0.32800
C16         C  0.14002017  0.49780408  0.54778918    -0.03400
C17         C  0.17740327  0.45315266  0.55852655    -0.04100
C18         C  0.13616946  0.44402328  0.52123469    -0.04000
C19         C  0.17117072  0.01491218  0.53159747    -0.03400
C20         C  0.19874793  0.46526803  0.53727170    -0.04100
C21         C  0.15792698  0.45661630  0.49993866    -0.04000
C22         C  0.18062764  0.04630873  0.54070552    -0.29400
N23         N  0.16523348  0.05404415  0.56624874     0.17100
C24         C  0.14609575  0.02754925  0.57391335    -0.29400
H25         H  0.13507918  0.02444196  0.59553621     0.19000
C26         C  0.23017062  0.45775331  0.54599126    -0.28400
N27         N  0.22841811  0.44104151  0.57196126     0.15800
C28         C  0.19614828  0.43816986  0.57996260    -0.28400
C29         C  0.16247011  0.43200809  0.47898535    -0.28700
N30         N  0.14420917  0.40483503  0.48604942     0.16300
H31         H  0.18022605  0.43286251  0.46108982     0.18900
C32         C  0.12855885  0.41148463  0.51202716    -0.28700
H33         H  0.11533125  0.39297029  0.52485565     0.18900
H34         H  0.18688109  0.42567796  0.59945359     0.18900
H35         H  0.20173916  0.05976917  0.53208627     0.19000
H36         H  0.25263062  0.46286151  0.53380451     0.18900
C37         C  0.36865881  0.45689390  0.39887563     0.32800
C38         C  0.31278175  0.47382754  0.42701157     0.32800
C39         C  0.36578733  0.49461491  0.40672630    -0.03400
C40         C  0.33709695  0.45073669  0.38135737    -0.04100
C41         C  0.36212576  0.43816188  0.42817572    -0.04000
C42         C  0.34973580  0.01539456  0.42865779    -0.03400
C43         C  0.30810905  0.46018431  0.39575008    -0.04100
C44         C  0.33310651  0.44699705  0.44222057    -0.04000
C45         C  0.33915462  0.04587266  0.41827798    -0.29400
N46         N  0.35548916  0.05364515  0.39320567     0.17100
C47         C  0.37617208  0.02771269  0.38709898    -0.29400
H48         H  0.38869841  0.02442828  0.36615064     0.19000
C49         C  0.28302697  0.44209107  0.38328335    -0.28400
N50         N  0.29565782  0.42223260  0.36172116     0.15800
C51         C  0.32871313  0.42636383  0.36112996    -0.28400
C52         C  0.32839224  0.42569416  0.46563879    -0.28700
N53         N  0.35401264  0.40384038  0.46666061     0.16300
H54         H  0.30760466  0.42596291  0.48069541     0.18900
C55         C  0.37502171  0.41139404  0.44397966    -0.28700
H56         H  0.39729660  0.39769828  0.43873049     0.18900
H57         H  0.34569195  0.41003342  0.34952058     0.18900
H58         H  0.31709108  0.05845302  0.42590363     0.19000
H59         H  0.25835833  0.43977231  0.39227926     0.18900
O60         O  0.14965794  0.32740007  0.41764873    -0.55000
C61         C  0.21539397  0.25456217  0.35141067     0.77600
O62         O  0.14023989  0.35139028  0.34390047    -0.56100
C63         C  0.17408616  0.34115625  0.43006262     0.77600
C64         C  0.22468995  0.36738659  0.34851357     0.80000
Cd65       Cd  0.18076875  0.31662974  0.36926170     1.37500
O66         O  0.20761037  0.26032463  0.37811457    -0.55000
O67         O  0.23515114  0.34027954  0.35926151    -0.53800
C68         C  0.11836315  0.32916317  0.34088596     0.80000
O69         O  0.19401369  0.36982374  0.34481864    -0.56200
O70         O  0.20365065  0.27475139  0.33274191    -0.54600
O71         O  0.20119573  0.33880341  0.41650529    -0.54600
O72         O  0.12527064  0.30014111  0.35048439    -0.53800
O73         O  0.24840603  0.22285134  0.31631864    -0.55000
C74         C  0.32436430  0.17442348  0.26904100     0.77600
O75         O  0.35626486  0.21476003  0.34698036    -0.56100
C76         C  0.24034321  0.22877859  0.34292182     0.77600
C77         C  0.31925790  0.13592081  0.36414014     0.80000
Cd78       Cd  0.30295308  0.19445876  0.32833136     1.37500
O79         O  0.30204323  0.15802069  0.28247131    -0.55000
O80         O  0.31854806  0.13415587  0.33631910    -0.53800
C81         C  0.35104255  0.24519342  0.34102090     0.80000
O82         O  0.31049657  0.16358713  0.37530060    -0.56200
O83         O  0.33274313  0.20185641  0.28093045    -0.54600
O84         O  0.25767886  0.21433480  0.36212503    -0.54600
O85         O  0.32330178  0.25223899  0.33036653    -0.53800
C86         C  0.45210383  0.14228004  0.15506744     0.32800
C87         C  0.47822290  0.18549607  0.19315063     0.32800
C88         C  0.48920345  0.13670588  0.16159031    -0.03400
C89         C  0.45163012  0.17851227  0.14454043    -0.04100
C90         C  0.43412604  0.14384939  0.18553473    -0.04000
C91         C  0.50225709  0.15910323  0.18256002    -0.03400
C92         C  0.46529014  0.20120027  0.16461411    -0.04100
C93         C  0.44905714  0.16598047  0.20545699    -0.04000
C94         C  0.03777073  0.19872690  0.16012433    -0.29400
N95         N  0.04714853  0.17523186  0.14051515     0.17100
C96         C  0.02160194  0.15382797  0.13655875    -0.29400
H97         H  0.02055859  0.13549191  0.11896343     0.19000
C98         C  0.44921558  0.23106174  0.16063568    -0.28400
N99         N  0.42726341  0.22766050  0.13857489     0.15800
C100        C  0.42787714  0.19557509  0.12905187    -0.28400
C101        C  0.42501446  0.17827733  0.22393453    -0.28700
N102        N  0.39553343  0.16531264  0.21669399     0.16300
H103        H  0.42814532  0.19916770  0.23896165     0.18900
C104        C  0.40031865  0.14525601  0.19264256    -0.28700
H105        H  0.38056879  0.13606717  0.17885816     0.18900
H106        H  0.40900917  0.18418918  0.11552263     0.18900
H107        H  0.05149988  0.22142067  0.16461474     0.19000
H108        H  0.45002158  0.25224578  0.17558641     0.18900
C109        C  0.45856436  0.36843625  0.30730715     0.32800
C110        C  0.48097094  0.31812502  0.27355413     0.32800
C111        C  0.49543796  0.37128655  0.29820563    -0.03400
C112        C  0.45694955  0.33381593  0.32182868    -0.04100
C113        C  0.43980395  0.36307956  0.27802407    -0.04000
C114        C  0.00589899  0.36924858  0.27409183    -0.03400
C115        C  0.46932090  0.30777564  0.30436418    -0.04100
C116        C  0.45184411  0.33718796  0.26082580    -0.04000
C117        C  0.03746734  0.36029603  0.28184197    -0.29400
N118        N  0.04570076  0.37544063  0.30734102     0.17100
C119        C  0.01972010  0.39429154  0.31624975    -0.29400
H120        H  0.01754055  0.40516197  0.33807308     0.19000
C121        C  0.45444715  0.27872958  0.31362069    -0.28400
N122        N  0.43312573  0.28600148  0.33564156     0.15800
C123        C  0.43362202  0.31957078  0.34026383    -0.28400
C124        C  0.43065267  0.33245191  0.23763301    -0.28700
N125        N  0.40543688  0.35475297  0.23996888     0.16300
H126        H  0.43248333  0.31275541  0.22125912     0.18900
C127        C  0.41047447  0.37327463  0.26494410    -0.28700
H128        H  0.39359453  0.39192939  0.27347948     0.18900
H129        H  0.41573059  0.33311685  0.35345021     0.18900
H130        H  0.05157482  0.34031551  0.27169748     0.19000
H131        H  0.45517501  0.25497516  0.30204991     0.18900
O132        O  0.25862083  0.30175823  0.12778425    -0.55000
C133        C  0.35523009  0.34491953  0.16836258     0.77600
O134        O  0.35235338  0.29628214  0.08710069    -0.56100
C135        C  0.25418687  0.29195534  0.10131361     0.77600
C136        C  0.31884791  0.39428012  0.08869722     0.80000
Cd137      Cd  0.31379002  0.33011038  0.11718866     1.37500
O138        O  0.32408461  0.34382882  0.17256230    -0.55000
O139        O  0.29641805  0.38853648  0.10766613    -0.53800
C140        C  0.35650546  0.27597215  0.10827522     0.80000
O141        O  0.33724127  0.36993681  0.08162474    -0.56200
O142        O  0.36488478  0.34123368  0.14208305    -0.54600
O143        O  0.27494043  0.30244741  0.08254466    -0.54600
O144        O  0.33814435  0.27900049  0.13077562    -0.53800
O145        O  0.29556343  0.25741977  0.88226077    -0.55000
C146        C  0.32593172  0.17547721  0.92838265     0.77600
O147        O  0.30868422  0.14473531  0.85808575    -0.56100
C148        C  0.28895878  0.26666805  0.85618635     0.77600
C149        C  0.38497983  0.18925828  0.83653838     0.80000
Cd150      Cd  0.32369320  0.20257493  0.86820402     1.37500
O151        O  0.29969030  0.18000651  0.91408642    -0.55000
O152        O  0.38567807  0.20332828  0.86166999    -0.53800
C153        C  0.27935382  0.15069095  0.85063050     0.80000
O154        O  0.35677074  0.18407138  0.82574976    -0.56200
O155        O  0.35188504  0.18763604  0.91689714    -0.54600
O156        O  0.30270253  0.24979225  0.83595350    -0.54600
O157        O  0.27144559  0.18104932  0.84787194    -0.53800
C158        C  0.14789391  0.05603511  0.89447723     0.32800
C159        C  0.19089496  0.03253522  0.93396104     0.32800
C160        C  0.14173898  0.01922902  0.90408822    -0.03400
C161        C  0.18373957  0.05484929  0.88369200    -0.04100
C162        C  0.15005197  0.07626404  0.92354046    -0.04000
C163        C  0.16409029  0.00753703  0.92562524    -0.03400
C164        C  0.20601344  0.04227395  0.90419492    -0.04100
C165        C  0.17232962  0.06373256  0.94356158    -0.04000
C166        C  0.17577073  0.48304362  0.92085642    -0.29400
N167        N  0.15564278  0.47161836  0.89951187     0.17100
C168        C  0.13608326  0.99166025  0.88578551    -0.29400
H169        H  0.12488054  0.99284578  0.86419452     0.19000
C170        C  0.23659928  0.05424571  0.89662865    -0.28400
N171        N  0.23382065  0.07354920  0.87227980     0.15800
C172        C  0.20154657  0.07467973  0.86454183    -0.28400
C173        C  0.17844693  0.08813172  0.96426347    -0.28700
N174        N  0.16018851  0.11558724  0.95791682     0.16300
H175        H  0.19602146  0.08638252  0.98206691     0.18900
C176        C  0.14278801  0.10876668  0.93290212    -0.28700
H177        H  0.12770746  0.12674669  0.92134026     0.18900
H178        H  0.19110992  0.09125592  0.84825979     0.18900
H179        H  0.19732364  0.46992550  0.92868087     0.19000
H180        H  0.25849113  0.05270630  0.91011849     0.18900
C181        C  0.36478198  0.05957330  0.05675288     0.32800
C182        C  0.31038105  0.04079770  0.02798261     0.32800
C183        C  0.36424586  0.02224885  0.04743953    -0.03400
C184        C  0.33270157  0.06302565  0.07452392    -0.04100
C185        C  0.35761298  0.07936844  0.02820877    -0.04000
C186        C  0.33575884  0.01299197  0.03164374    -0.03400
C187        C  0.30422855  0.05286804  0.05963601    -0.04100
C188        C  0.32943320  0.06942218  0.01373572    -0.04000
C189        C  0.33565583  0.48462952  0.03394962    -0.29400
N190        N  0.35662878  0.47215588  0.05404239     0.17100
C191        C  0.37210079  0.99423195  0.06432051    -0.29400
H192        H  0.38938490  0.99397693  0.08242232     0.19000
C193        C  0.27868441  0.07146574  0.07112959    -0.28400
N194        N  0.29034175  0.09185317  0.09266078     0.15800
C195        C  0.32326364  0.08761904  0.09420611    -0.28400
C196        C  0.32392320  0.09138623  0.99095271    -0.28700
N197        N  0.34822545  0.11486509  0.99079353     0.16300
H198        H  0.30346524  0.09036895  0.97576265     0.18900
C199        C  0.36917615  0.10759911  0.01340640    -0.28700
H200        H  0.39053320  0.12237233  0.01927547     0.18900
H201        H  0.33974524  0.10457639  0.10557591     0.18900
H202        H  0.31336211  0.47213369  0.02685893     0.19000
H203        H  0.25467719  0.07400073  0.06107093     0.18900
O204        O  0.22385604  0.25872354  0.06600229    -0.55000
C205        C  0.18683178  0.17887452  0.01631151     0.77600
O206        O  0.19172114  0.15131416  0.09620269    -0.56100
C207        C  0.22841957  0.26712300  0.09269856     0.77600
C208        C  0.12335536  0.20741634  0.10108142     0.80000
Cd209      Cd  0.18853997  0.20791603  0.07597420     1.37500
O210        O  0.21257813  0.18132482  0.03164370    -0.55000
O211        O  0.13196690  0.23076744  0.08366891    -0.53800
C212        C  0.22238746  0.15217963  0.10042262     0.80000
O213        O  0.14503174  0.18599671  0.10746512    -0.56200
O214        O  0.16181984  0.19428156  0.02620640    -0.54600
O215        O  0.21180237  0.25089498  0.11155524    -0.54600
O216        O  0.23667447  0.17996792  0.09650460    -0.53800
O217        O  0.21090158  0.17726833  0.68143091    -0.55000
C218        C  0.27217888  0.23246498  0.61394401     0.77600
O219        O  0.18922394  0.16835182  0.58406946    -0.56100
C220        C  0.17962940  0.17433181  0.68263359     0.77600
C221        C  0.16546811  0.25108481  0.62425125     0.80000
Cd222      Cd  0.21043053  0.19672220  0.62776044     1.37500
O223        O  0.26434235  0.22540998  0.64035456    -0.55000
O224        O  0.18204433  0.24483092  0.64705869    -0.53800
C225        C  0.19649069  0.13894977  0.59193987     0.80000
O226        O  0.17164738  0.23388295  0.60143028    -0.56200
O227        O  0.25461984  0.21904481  0.59426775    -0.54600
O228        O  0.16446774  0.17977956  0.65884001    -0.54600
O229        O  0.21257026  0.13590448  0.61572524    -0.53800
C230        C  0.06080315  0.15492036  0.80714748     0.32800
C231        C  0.03782069  0.20805489  0.77758017     0.32800
C232        C  0.02296032  0.15433087  0.80134049    -0.03400
C233        C  0.06506717  0.18859170  0.82280798    -0.04100
C234        C  0.07712550  0.16129669  0.77665239    -0.04000
C235        C  0.01172676  0.18176295  0.78445005    -0.03400
C236        C  0.05270761  0.21580292  0.80766256    -0.04100
C237        C  0.06477453  0.18867941  0.76177407    -0.04000
C238        C  0.47831258  0.17677920  0.78732729    -0.29400
N239        N  0.47119068  0.16043502  0.81253659     0.17100
C240        C  0.99736346  0.14859146  0.82158476    -0.29400
H241        H  0.50144960  0.12980655  0.84067276     0.19000
C242        C  0.06093763  0.24408537  0.82306379    -0.28400
N243        N  0.07881869  0.23490994  0.84687516     0.15800
C244        C  0.08140818  0.20090496  0.84707764    -0.28400
C245        C  0.08287652  0.19302219  0.73646432    -0.28700
N246        N  0.10677338  0.16939903  0.73538658     0.16300
H247        H  0.07925394  0.21234700  0.72008330     0.18900
C248        C  0.10372688  0.14968900  0.75985075    -0.28700
H249        H  0.11938847  0.12858868  0.76492140     0.18900
H250        H  0.09617542  0.18651290  0.86227513     0.18900
H251        H  0.46447327  0.19802551  0.77931253     0.19000
H252        H  0.05733344  0.26961721  0.81578491     0.18900
C253        C  0.05572837  0.38202647  0.65871350     0.32800
C254        C  0.03053774  0.33993130  0.69819067     0.32800
C255        C  0.01770908  0.38378897  0.66206146    -0.03400
C256        C  0.06150219  0.34513354  0.65137007    -0.04100
C257        C  0.07023936  0.38575359  0.69020518    -0.04000
C258        C  0.00484623  0.36213061  0.68363259    -0.03400
C259        C  0.04826133  0.32296706  0.67222068    -0.04100
C260        C  0.05648679  0.36356693  0.71074549    -0.04000
C261        C  0.48253457  0.34503770  0.67068665    -0.29400
N262        N  0.47490767  0.36238703  0.64620218     0.17100
C263        C  0.99427919  0.38358031  0.63951997    -0.29400
H264        H  0.50481369  0.39283520  0.61731528     0.19000
C265        C  0.06865374  0.29547217  0.67251355    -0.28400
N266        N  0.09267651  0.29953428  0.65216598     0.15800
C267        C  0.08911889  0.32994882  0.63962542    -0.28400
C268        C  0.08090718  0.35560630  0.73069769    -0.28700
N269        N  0.10894335  0.37221624  0.72393749     0.16300
H270        H  0.07905330  0.33645666  0.74749125     0.18900
C271        C  0.10299984  0.39020982  0.69909366    -0.28700
H272        H  0.12200002  0.40276519  0.68643586     0.18900
H273        H  0.10784130  0.34218421  0.62638776     0.18900
H274        H  0.46835068  0.32403150  0.67890638     0.19000
H275        H  0.06849986  0.27592586  0.68903266     0.18900
O276        O  0.25602927  0.30134041  0.82355615    -0.55000
C277        C  0.17210812  0.33669882  0.77751720     0.77600
O278        O  0.14881309  0.30925750  0.86125799    -0.56100
C279        C  0.26315865  0.29233815  0.84965812     0.77600
C280        C  0.19279665  0.39132462  0.86711476     0.80000
Cd281      Cd  0.20059435  0.32749314  0.83682999     1.37500
O282        O  0.18598145  0.36096433  0.79048716    -0.50200
O283        O  0.22034666  0.38227060  0.85638334    -0.53800
C284        C  0.15560429  0.27838202  0.85992197     0.80000
O285        O  0.16942442  0.37052209  0.86500905    -0.56200
O286        O  0.17596635  0.30845641  0.78944038    -0.54600
O287        O  0.24428623  0.30344984  0.86973583    -0.54600
O288        O  0.18377237  0.27077326  0.85027498    -0.53800
C289        C  0.13953433  0.36987744  0.74032176    -0.13600
C290        C  0.14955058  0.34034946  0.75181394    -0.28800
H291        H  0.15254067  0.39278297  0.74589578     0.15400
H292        H  0.13677794  0.31775039  0.74492762     0.16000
C293        C  0.09914428  0.25845776  0.86230945    -0.13600
C294        C  0.13126380  0.25201596  0.86580217    -0.28800
H295        H  0.09109031  0.28442404  0.86247368     0.15400
H296        H  0.14000822  0.22641238  0.86393397     0.16000
C297        C  0.01741066  0.31621910  0.71946759    -0.15700
C298        C  0.01344901  0.29252061  0.73506439     0.08400
C299        C  0.01742129  0.26264596  0.75034712     0.10200
C300        C  0.02571669  0.23737965  0.76219392    -0.16500
C301        C  0.16088551  0.16700679  0.71039081    -0.13600
C302        C  0.12760550  0.16508676  0.70976072    -0.28800
H303        H  0.17368322  0.16707763  0.73135910     0.15400
H304        H  0.11545037  0.16681674  0.68851701     0.16000
C305        C  0.13875276  0.27560061  0.62521419    -0.13600
C306        C  0.12097828  0.27842975  0.65009718    -0.28800
H307        H  0.13154011  0.28861702  0.60527052     0.15400
H308        H  0.12671579  0.26260360  0.66889263     0.16000
C309        C  0.27359235  0.12099154  0.10342101    -0.13600
C310        C  0.24073102  0.12132452  0.10585343    -0.28800
H311        H  0.28743695  0.14425399  0.10493384     0.15400
H312        H  0.22715928  0.09788324  0.10503993     0.16000
C313        C  0.18854678  0.42431176  0.88164748    -0.13600
C314        C  0.15904178  0.43988545  0.88429709    -0.28800
H315        H  0.21069878  0.43665976  0.88939099     0.15400
H316        H  0.13741264  0.42884914  0.87412377     0.16000
C317        C  0.15945295  0.14599027  0.97554329    -0.13600
C318        C  0.18667307  0.15645221  0.99001691    -0.28800
H319        H  0.13605664  0.15852542  0.97921346     0.15400
H320        H  0.20990208  0.14413352  0.98504092     0.16000
C321        C  0.12459313  0.06982567  0.87308912    -0.15700
C322        C  0.10698365  0.08457607  0.85623603     0.08400
C323        C  0.08831570  0.10556018  0.83779702     0.10200
C324        C  0.07443754  0.12640414  0.82328971    -0.16500
C325        C  0.21431753  0.02119319  0.95592053    -0.15700
C326        C  0.23455263  0.01841050  0.97480184     0.08400
C327        C  0.25913776  0.02267705  0.99583826     0.10200
C328        C  0.28135861  0.03032430  0.01169813    -0.16500
C329        C  0.44320148  0.16831965  0.83132109    -0.13600
C330        C  0.41484804  0.17985356  0.81952890    -0.28800
H331        H  0.44499266  0.16462514  0.85499163     0.15400
H332        H  0.41245791  0.18030535  0.79569541     0.16000
C333        C  0.35169971  0.14173552  0.96939599    -0.13600
C334        C  0.32509062  0.15485475  0.95575248    -0.28800
H335        H  0.37624340  0.15006081  0.96317156     0.15400
H336        H  0.30078372  0.14693176  0.96302425     0.16000
C337        C  0.25461570  0.12401304  0.84861441    -0.13600
C338        C  0.26012489  0.09471429  0.86217635    -0.28800
H339        H  0.23007073  0.13087289  0.84153770     0.15400
H340        H  0.28469037  0.08938716  0.87040966     0.16000
C341        C  0.32313551  0.42766994  0.07534152    -0.13600
C342        C  0.35310914  0.44012029  0.06831677    -0.28800
H343        H  0.30132843  0.44298268  0.07234922     0.15400
H344        H  0.37516192  0.42626860  0.07410884     0.16000
C345        C  0.38098928  0.34805301  0.19152225    -0.13600
C346        C  0.37729574  0.35629571  0.22024653    -0.28800
H347        H  0.40579823  0.34268404  0.18376139     0.15400
H348        H  0.35343331  0.36420135  0.22863816     0.16000
C349        C  0.07728316  0.17619163  0.12370124    -0.13600
C350        C  0.09004071  0.20543943  0.11402493    -0.28800
H351        H  0.09010972  0.15282822  0.11930994     0.15400
H352        H  0.07591641  0.22840602  0.11612252     0.16000
C353        C  0.39337872  0.07082139  0.07371886    -0.15700
C354        C  0.41143536  0.08337184  0.09160512     0.08400
C355        C  0.42729346  0.10105008  0.11442587     0.10200
C356        C  0.43860125  0.11839677  0.13364795    -0.16500
C357        C  0.40130602  0.25103056  0.13385850    -0.13600
C358        C  0.38366037  0.25209383  0.10895782    -0.28800
H359        H  0.39590156  0.26875962  0.15153346     0.15400
H360        H  0.39007759  0.23714271  0.08974583     0.16000
C361        C  0.49209574  0.21007458  0.21334794    -0.15700
C362        C  0.49848563  0.23424258  0.22781043     0.08400
C363        C  0.49845018  0.26469938  0.24285995     0.10200
C364        C  0.49262467  0.29012678  0.25580759    -0.16500
C365        C  0.34259470  0.16066812  0.24287424    -0.13600
C366        C  0.36549141  0.17934940  0.22882430    -0.28800
H367        H  0.34194202  0.13381863  0.23913362     0.15400
H368        H  0.36599999  0.20598429  0.23386881     0.16000
C369        C  0.37644396  0.27107871  0.34409726    -0.13600
C370        C  0.40836152  0.26276431  0.34505233    -0.28800
H371        H  0.36940396  0.29686949  0.33999077     0.15400
H372        H  0.41517412  0.23649721  0.34649105     0.16000
C373        C  0.08681370  0.33666068  0.32618810    -0.13600
C374        C  0.07468922  0.36809650  0.32438544    -0.28800
H375        H  0.07323739  0.31593807  0.31656940     0.15400
H376        H  0.08669084  0.38840974  0.33616585     0.16000
C377        C  0.34693574  0.08084140  0.37353656    -0.13600
C378        C  0.32949268  0.10766827  0.38313719    -0.28800
H379        H  0.35492126  0.07965044  0.35064417     0.15400
H380        H  0.32348654  0.10998585  0.40638909     0.16000
C381        C  0.39811059  0.44642490  0.38239222    -0.15700
C382        C  0.41728263  0.43366015  0.36539323     0.08400
C383        C  0.43448410  0.41471145  0.34401836     0.10200
C384        C  0.44625288  0.39546992  0.32637236    -0.16500
C385        C  0.27862970  0.39402625  0.34966907    -0.13600
C386        C  0.24640406  0.39616762  0.34390564    -0.28800
H387        H  0.29068810  0.36974759  0.35032082     0.15400
H388        H  0.23493211  0.42066126  0.34225211     0.16000
C389        C  0.17428583  0.08167899  0.58510025    -0.13600
C390        C  0.18669745  0.11015119  0.57367334    -0.28800
H391        H  0.17058690  0.07955507  0.60878329     0.15400
H392        H  0.18729909  0.11348594  0.54991697     0.16000
C393        C  0.14376493  0.37405239  0.46905844    -0.13600
C394        C  0.17198672  0.36199825  0.45722032    -0.28800
H395        H  0.12019605  0.36339991  0.46276699     0.15400
H396        H  0.19506004  0.37291280  0.46460395     0.16000
C397        C  0.06976107  0.40493593  0.63677758    -0.15700
C398        C  0.08350867  0.42050686  0.61763728     0.08400
C399        C  0.10158343  0.43559982  0.59464636     0.10200
C400        C  0.11850692  0.44679333  0.57514439    -0.16500
C401        C  0.20620900  0.49340826  0.48876291    -0.15700
C402        C  0.22897620  0.49511391  0.47194058     0.08400
C403        C  0.25745446  0.49021325  0.45501099     0.10200
C404        C  0.28233643  0.48303197  0.44217486    -0.16500
C405        C  0.41797771  0.34491894  0.64064919    -0.13600
C406        C  0.44627667  0.35590961  0.62828691    -0.28800
H407        H  0.41594148  0.34367606  0.66451320     0.15400
H408        H  0.44762050  0.36013087  0.60464341     0.16000
C409        C  0.33219025  0.36285944  0.50147253    -0.13600
C410        C  0.35844212  0.37833034  0.48902845    -0.28800
H411        H  0.30798724  0.36732728  0.49218050     0.15400
H412        H  0.38306926  0.37337873  0.49717941     0.16000
C413        C  0.25349040  0.39857407  0.60284640    -0.13600
C414        C  0.25649695  0.42534915  0.58520035    -0.28800
H415        H  0.22943249  0.39068029  0.61069408     0.15400
H416        H  0.28064428  0.43154703  0.57621742     0.16000
O417        O  0.29639583  0.76658065  0.57364207    -0.55000
C418        C  0.33294601  0.84884269  0.52972856     0.77600
O419        O  0.31041455  0.87780159  0.60030167    -0.56100
C420        C  0.29192925  0.75533294  0.59953152     0.77600
C421        C  0.38688112  0.83112182  0.62119255     0.80000
Cd422      Cd  0.32620038  0.81995534  0.58890670     1.37500
O423        O  0.35732658  0.83413193  0.54137422    -0.55000
O424        O  0.38772725  0.82212232  0.59436938    -0.53800
C425        C  0.28091646  0.87117583  0.60708709     0.80000
O426        O  0.35872880  0.83237824  0.63322722    -0.56200
O427        O  0.30567274  0.84548076  0.54299782    -0.54600
O428        O  0.30759927  0.77042377  0.61958175    -0.54600
O429        O  0.27343256  0.84063123  0.60908085    -0.53800
C430        C  0.14889621  0.96425116  0.55652559     0.32800
C431        C  0.19394595  0.98826064  0.51873557     0.32800
C432        C  0.14798639  0.00275511  0.55227686    -0.03400
C433        C  0.18453916  0.95823382  0.56541091    -0.04100
C434        C  0.14723569  0.94927926  0.52503402    -0.04000
C435        C  0.16144671  0.50971947  0.52550503    -0.03400
C436        C  0.20768780  0.97084631  0.54601643    -0.04100
C437        C  0.17054281  0.96243244  0.50551081    -0.04000
C438        C  0.17206062  0.54106494  0.53420166    -0.29400
N439        N  0.15866794  0.54895256  0.56066523     0.17100
C440        C  0.13996391  0.52260855  0.56942343    -0.29400
H441        H  0.13054306  0.51958435  0.59164805     0.19000
C442        C  0.23818112  0.96252566  0.55659883    -0.28400
N443        N  0.23406146  0.94463731  0.58174957     0.15800
C444        C  0.20121023  0.94198132  0.58750038    -0.28400
C445        C  0.17532045  0.93936120  0.48335581    -0.28700
N446        N  0.15565918  0.91239742  0.48809027     0.16300
H447        H  0.19442618  0.94065785  0.46663235     0.18900
C448        C  0.13959808  0.91745771  0.51417865    -0.28700
H449        H  0.12513571  0.89861409  0.52547725     0.18900
H450        H  0.19019668  0.92825786  0.60558345     0.18900
H451        H  0.19249250  0.55445536  0.52428598     0.19000
H452        H  0.26159982  0.96724515  0.54582644     0.18900
C453        C  0.37571255  0.96493797  0.40693643     0.32800
C454        C  0.32799309  0.98826046  0.44200539     0.32800
C455        C  0.37433726  0.00364098  0.40940276    -0.03400
C456        C  0.34091309  0.95591844  0.39686233    -0.04100
C457        C  0.37679349  0.95176469  0.43916683    -0.04000
C458        C  0.33683825  0.50285010  0.42263464    -0.03400
C459        C  0.31594485  0.96818130  0.41535895    -0.04100
C460        C  0.35169714  0.96446454  0.45732992    -0.04000
C461        C  0.32789941  0.53476934  0.41468328    -0.29400
N462        N  0.34887476  0.54651713  0.39401065     0.17100
C463        C  0.37140545  0.52213736  0.38842742    -0.29400
H464        H  0.38796694  0.52234796  0.36963167     0.19000
C465        C  0.29041400  0.94561618  0.41383372    -0.28400
N466        N  0.29818844  0.92137293  0.39427406     0.15800
C467        C  0.32918008  0.92666480  0.38438272    -0.28400
C468        C  0.34441158  0.94026655  0.47807090    -0.28700
N469        N  0.36426299  0.91341945  0.47407976     0.16300
H470        H  0.32401303  0.94125644  0.49353013     0.18900
C471        C  0.38364804  0.91983394  0.45016757    -0.28700
H472        H  0.39924294  0.90135407  0.43958893     0.18900
H473        H  0.34369154  0.90827444  0.37249323     0.18900
H474        H  0.30417708  0.54588832  0.41961219     0.19000
H475        H  0.26934652  0.94471333  0.42858146     0.18900
O476        O  0.16726559  0.82765032  0.42251349    -0.55000
C477        C  0.21988039  0.75484915  0.35389756     0.77600
O478        O  0.14933680  0.84339279  0.33129255    -0.56100
C479        C  0.16604078  0.85917868  0.41794876     0.77600
C480        C  0.24215867  0.85646551  0.36324904     0.80000
Cd481      Cd  0.18460206  0.81696345  0.36805483     1.37500
O482        O  0.20877761  0.76027737  0.37983277    -0.55000
O483        O  0.23615952  0.83766852  0.38507008    -0.53800
C484        C  0.12426414  0.82522608  0.33593095     0.80000
O485        O  0.22265232  0.85481272  0.34146762    -0.56200
O486        O  0.21111638  0.77551601  0.33429533    -0.54600
O487        O  0.17162366  0.86865174  0.39190516    -0.54600
O488        O  0.12760313  0.80115673  0.35393769    -0.53800
O489        O  0.25593610  0.72300995  0.32152624    -0.55000
C490        C  0.34205498  0.68716243  0.28006217     0.77600
O491        O  0.36126421  0.71097366  0.36077754    -0.56100
C492        C  0.24530283  0.72887469  0.34743031     0.77600
C493        C  0.31791721  0.63235062  0.36969042     0.80000
Cd494      Cd  0.30884351  0.69446897  0.33760529     1.37500
O495        O  0.32134013  0.66504252  0.28804006    -0.55000
O496        O  0.31402893  0.63220305  0.34198940    -0.53800
C497        C  0.35604317  0.74207223  0.35835108     0.80000
O498        O  0.31534933  0.66040970  0.38245661    -0.56200
O499        O  0.34389123  0.71269779  0.29643916    -0.54600
O500        O  0.26058000  0.71432719  0.36791209    -0.54600
O501        O  0.32808738  0.75079463  0.34917161    -0.53800
C502        C  0.45826497  0.64195072  0.15760836     0.32800
C503        C  0.48140005  0.68683327  0.19597415     0.32800
C504        C  0.49610437  0.64105868  0.16190103    -0.03400
C505        C  0.45244456  0.67825943  0.14865449    -0.04100
C506        C  0.44272889  0.63988057  0.18905032    -0.04000
C507        C  0.50774647  0.66411762  0.18295105    -0.03400
C508        C  0.46446160  0.70177828  0.16891044    -0.04100
C509        C  0.45574432  0.66321607  0.20892964    -0.04000
C510        C  0.03026690  0.69203684  0.16306737    -0.29400
N511        N  0.04230585  0.66818959  0.14493763     0.17100
C512        C  0.01809391  0.64523942  0.14047157    -0.29400
H513        H  0.01922250  0.62583519  0.12377338     0.19000
C514        C  0.44395330  0.72902252  0.16735878    -0.28400
N515        N  0.42119459  0.72354688  0.14632952     0.15800
C516        C  0.42551510  0.69247938  0.13522187    -0.28400
C517        C  0.43160065  0.67079834  0.22929069    -0.28700
N518        N  0.40387312  0.65338072  0.22320571     0.16300
H519        H  0.43354760  0.69006703  0.24601787     0.18900
C520        C  0.41005650  0.63499596  0.19839713    -0.28700
H521        H  0.39132591  0.62156684  0.18624677     0.18900
H522        H  0.40746558  0.67932234  0.12203395     0.18900
H523        H  0.04249250  0.71550401  0.16784093     0.19000
H524        H  0.44291332  0.74938911  0.18316309     0.18900
C525        C  0.45870653  0.86858290  0.31344516     0.32800
C526        C  0.48207902  0.81941511  0.27877467     0.32800
C527        C  0.49668610  0.86841809  0.30940729    -0.03400
C528        C  0.45171733  0.83312757  0.32437576    -0.04100
C529        C  0.44458662  0.86813728  0.28176423    -0.04000
C530        C  0.00969991  0.86283268  0.27033996    -0.03400
C531        C  0.46397972  0.80789945  0.30652515    -0.04100
C532        C  0.45736274  0.84273163  0.26381662    -0.04000
C533        C  0.04142244  0.85329050  0.27701074    -0.29400
N534        N  0.05182271  0.87010380  0.30103091     0.17100
C535        C  0.02701839  0.89030324  0.31030914    -0.29400
H536        H  0.02670424  0.90280537  0.33151763     0.19000
C537        C  0.45325466  0.77798773  0.31777892    -0.28400
N538        N  0.43416854  0.78443153  0.34175619     0.15800
C539        C  0.43314749  0.81815957  0.34613461    -0.28400
C540        C  0.43420415  0.83589550  0.24245701    -0.28700
N541        N  0.40775066  0.85632081  0.24600715     0.16300
H542        H  0.43519933  0.81487426  0.22735934     0.18900
C543        C  0.41318869  0.87494254  0.27072854    -0.28700
H544        H  0.39481280  0.89064016  0.28122582     0.18900
H545        H  0.41841668  0.83091540  0.36263699     0.18900
H546        H  0.05426641  0.83214799  0.26737072     0.19000
H547        H  0.45659430  0.75356622  0.30777510     0.18900
O548        O  0.25558539  0.79991845  0.13779492    -0.55000
C549        C  0.35331318  0.84279710  0.17713506     0.77600
O550        O  0.34953069  0.79584049  0.09671417    -0.56100
C551        C  0.25056668  0.79068541  0.11125035     0.77600
C552        C  0.31444692  0.89252761  0.09714767     0.80000
Cd553      Cd  0.31030582  0.82876564  0.12667866     1.37500
O554        O  0.32226295  0.84302908  0.18198429    -0.55000
O555        O  0.29187224  0.88676075  0.11598645    -0.53800
C556        C  0.35159557  0.77373053  0.11671657     0.80000
O557        O  0.33356886  0.86848243  0.09093299    -0.56200
O558        O  0.36207080  0.83808517  0.15075486    -0.54600
O559        O  0.27070099  0.80187454  0.09223607    -0.54600
O560        O  0.33174548  0.77558768  0.13829421    -0.53800
O561        O  0.30638221  0.76105065  0.88276578    -0.55000
C562        C  0.33608856  0.68390963  0.93365043     0.77600
O563        O  0.32432409  0.64503946  0.85943627    -0.56100
C564        C  0.29794646  0.76674912  0.85633839     0.77600
C565        C  0.39333534  0.69456582  0.84121171     0.80000
Cd566      Cd  0.33216379  0.70431916  0.87232824     1.37500
O567        O  0.30913073  0.68979867  0.92082553    -0.55000
O568        O  0.39354531  0.70117831  0.86857573    -0.53800
C569        C  0.29345290  0.64683202  0.85737119     0.80000
O570        O  0.36573810  0.69550527  0.82847083    -0.56200
O571        O  0.36205773  0.69214298  0.91978573    -0.54600
O572        O  0.30910839  0.74655449  0.83729457    -0.54600
O573        O  0.28081491  0.67558209  0.85974289    -0.53800
C574        C  0.14284292  0.56258583  0.89920227     0.32800
C575        C  0.19424171  0.54336112  0.93194253     0.32800
C576        C  0.14177803  0.52538570  0.90910429    -0.03400
C577        C  0.17638467  0.56481661  0.88365238    -0.04100
C578        C  0.14817584  0.58298813  0.92785095    -0.04000
C579        C  0.16856042  0.51598101  0.92712083    -0.03400
C580        C  0.20318415  0.55432041  0.90056338    -0.04100
C581        C  0.17481561  0.57276581  0.94428398    -0.04000
C582        C  0.16979740  0.97420731  0.91986780    -0.29400
N583        N  0.15317479  0.96475818  0.89560303     0.17100
C584        C  0.13509095  0.49703090  0.89203676    -0.29400
H585        H  0.11956889  0.49663637  0.87269456     0.19000
C586        C  0.23036311  0.57110997  0.89008436    -0.28400
N587        N  0.22122699  0.59097336  0.86734957     0.15800
C588        C  0.18830891  0.58816087  0.86394871    -0.28400
C589        C  0.18040223  0.59626732  0.96587894    -0.28700
N590        N  0.15756282  0.62090194  0.96352318     0.16300
H591        H  0.20022488  0.59580066  0.98175762     0.18900
C592        C  0.13748160  0.61299875  0.94042046    -0.28700
H593        H  0.11774976  0.62869687  0.93243318     0.18900
H594        H  0.17351354  0.60511825  0.85095768     0.18900
H595        H  0.18912209  0.95948817  0.92987598     0.19000
H596        H  0.25378102  0.57283089  0.90132231     0.18900
C597        C  0.37121531  0.56259933  0.05667721     0.32800
C598        C  0.31852192  0.54572585  0.02443129     0.32800
C599        C  0.37101259  0.52580298  0.04576430    -0.03400
C600        C  0.33802315  0.56551527  0.07287416    -0.04100
C601        C  0.36599368  0.58375142  0.02864667    -0.04000
C602        C  0.34344679  0.51754793  0.02827519    -0.03400
C603        C  0.31051284  0.55626152  0.05617841    -0.04100
C604        C  0.33867392  0.57479831  0.01243663    -0.04000
C605        C  0.32844294  0.98039659  0.03902828    -0.29400
N606        N  0.35040366  0.96913938  0.05881064     0.17100
C607        C  0.37799021  0.49683232  0.06162834    -0.29400
H608        H  0.39432167  0.49545436  0.08038503     0.19000
C609        C  0.28413392  0.57381157  0.06740895    -0.28400
N610        N  0.29436272  0.59284558  0.09042532     0.15800
C611        C  0.32724959  0.58888165  0.09320042    -0.28400
C612        C  0.33428637  0.59828443  0.99077076    -0.28700
N613        N  0.35851840  0.62159932  0.99295383     0.16300
H614        H  0.31453900  0.59862779  0.97481157     0.18900
C615        C  0.37835894  0.61285549  0.01589409    -0.28700
H616        H  0.39925280  0.62729209  0.02347616     0.18900
H617        H  0.34286684  0.60504782  0.10630046     0.18900
H618        H  0.30586254  0.96747237  0.03339917     0.19000
H619        H  0.26056022  0.57656722  0.05660736     0.18900
O620        O  0.21760046  0.76010928  0.07595132    -0.55000
C621        C  0.18265392  0.68344763  0.02279377     0.77600
O622        O  0.19270479  0.64784761  0.09927279    -0.56100
C623        C  0.22494793  0.76563657  0.10271843     0.77600
C624        C  0.12118164  0.70252626  0.11034181     0.80000
Cd625      Cd  0.18615903  0.70632657  0.08422630     1.37500
O626        O  0.15709533  0.69458655  0.03554896    -0.55000
O627        O  0.13025972  0.72820936  0.09595601    -0.53800
C628        C  0.22347379  0.64959741  0.10260600     0.80000
O629        O  0.14248374  0.67985359  0.11386807    -0.56200
O630        O  0.20938106  0.68782788  0.03636937    -0.54600
O631        O  0.21150319  0.74631220  0.12135187    -0.54600
O632        O  0.23636326  0.67834193  0.10090235    -0.53800
O633        O  0.20480818  0.67253583  0.67561806    -0.55000
C634        C  0.26640222  0.72944756  0.60651531     0.77600
O635        O  0.18423067  0.66409511  0.57747711    -0.56100
C636        C  0.17351592  0.67408267  0.67826129     0.77600
C637        C  0.16118269  0.74832472  0.62068056     0.80000
Cd638      Cd  0.20473569  0.69297762  0.62187435     1.37500
O639        O  0.26189545  0.71762206  0.63224198    -0.55000
O640        O  0.18064570  0.74273727  0.64173997    -0.53800
C641        C  0.18976545  0.63453070  0.58599700     0.80000
O642        O  0.16360082  0.72972711  0.59810387    -0.56200
O643        O  0.24522267  0.72088343  0.58762983    -0.54600
O644        O  0.15813378  0.68249265  0.65525343    -0.54600
O645        O  0.20427726  0.63146830  0.61056018    -0.53800
C646        C  0.05986253  0.65826181  0.80807243     0.32800
C647        C  0.03600011  0.71276501  0.78086006     0.32800
C648        C  0.02200680  0.65792210  0.80279653    -0.03400
C649        C  0.06448359  0.69125448  0.82476714    -0.04100
C650        C  0.07549097  0.66586101  0.77739420    -0.04000
C651        C  0.01008178  0.68611835  0.78742747    -0.03400
C652        C  0.05178573  0.71923100  0.81082950    -0.04100
C653        C  0.06257599  0.69390264  0.76379186    -0.04000
C654        C  0.48657176  0.68410124  0.79313496    -0.29400
N655        N  0.47863068  0.66530172  0.81674080     0.17100
C656        C  0.99664919  0.64954768  0.82240640    -0.29400
H657        H  0.50792092  0.63238676  0.84361230     0.19000
C658        C  0.06496015  0.74695257  0.82423830    -0.28400
N659        N  0.08573156  0.73666658  0.84565685     0.15800
C660        C  0.08596370  0.70262500  0.84599291    -0.28400
C661        C  0.07924440  0.69887804  0.73777182    -0.28700
N662        N  0.10285462  0.67511405  0.73481841     0.16300
H663        H  0.07466952  0.71868300  0.72204454     0.18900
C664        C  0.10102019  0.65460326  0.75895006    -0.28700
H665        H  0.11659055  0.63305809  0.76262148     0.18900
H666        H  0.10285157  0.68736370  0.85853453     0.18900
H667        H  0.47308026  0.70613357  0.78638776     0.19000
H668        H  0.06305459  0.77247192  0.81640858     0.18900
C669        C  0.06460462  0.88700891  0.66270733     0.32800
C670        C  0.04015549  0.84734417  0.70455462     0.32800
C671        C  0.02726384  0.89099426  0.66813405    -0.03400
C672        C  0.06790317  0.84970913  0.65598429    -0.04100
C673        C  0.08121149  0.89100079  0.69319354    -0.04000
C674        C  0.01477090  0.87056664  0.69084850    -0.03400
C675        C  0.05527516  0.82888372  0.67806586    -0.04100
C676        C  0.06775546  0.87024097  0.71508368    -0.04000
C677        C  0.48015779  0.84617197  0.66998698    -0.29400
N678        N  0.47233671  0.86148381  0.64449001     0.17100
C679        C  0.00278083  0.89131384  0.64671070    -0.29400
H680        H  0.50153419  0.89167883  0.61487285     0.19000
C681        C  0.07364631  0.79996003  0.67719004    -0.28400
N682        N  0.09552140  0.80193105  0.65472604     0.15800
C683        C  0.09290536  0.83241560  0.64211882    -0.28400
C684        C  0.09288678  0.86204904  0.73403708    -0.28700
N685        N  0.12114869  0.87689994  0.72517169     0.16300
H686        H  0.09130276  0.84353344  0.75139637     0.18900
C687        C  0.11459634  0.89414553  0.70011892    -0.28700
H688        H  0.13337343  0.90484074  0.68594660     0.18900
H689        H  0.11082502  0.84297410  0.62699793     0.18900
H690        H  0.46683911  0.82502362  0.67902978     0.19000
H691        H  0.07371089  0.78057098  0.69384916     0.18900
O692        O  0.26548991  0.79861215  0.82180604    -0.55000
C693        C  0.18370314  0.83638299  0.77476094     0.77600
O694        O  0.16264169  0.80602688  0.86100328    -0.56100
C695        C  0.27288553  0.79230466  0.84841138     0.77600
C696        C  0.19739052  0.88928291  0.86233636     0.80000
Cd697      Cd  0.21108503  0.82609987  0.83340657     1.37500
O698        O  0.20222231  0.85863689  0.78580414    -0.50200
O699        O  0.22596148  0.88248848  0.85246282    -0.53800
C700        C  0.16685709  0.77564247  0.85392857     0.80000
O701        O  0.17579956  0.86663329  0.85981931    -0.56200
O702        O  0.18257318  0.80889495  0.78831081    -0.54600
O703        O  0.25481359  0.80591964  0.86785551    -0.54600
O704        O  0.19279535  0.76854477  0.83983617    -0.53800
C705        C  0.15274863  0.87232598  0.73922457    -0.13600
C706        C  0.16143088  0.84190055  0.74941705    -0.28800
H707        H  0.16720681  0.89427326  0.74491941     0.15400
H708        H  0.14668571  0.82047417  0.74275353     0.16000
C709        C  0.10971298  0.75866285  0.85837843    -0.13600
C710        C  0.14158780  0.74999348  0.85863125    -0.28800
H711        H  0.10325469  0.78500757  0.86028110     0.15400
H712        H  0.14858052  0.72424091  0.85415650     0.16000
C713        C  0.02693386  0.82459616  0.72674314    -0.15700
C714        C  0.02021322  0.80088303  0.74168470     0.08400
C715        C  0.01915835  0.76983745  0.75574032     0.10200
C716        C  0.02416785  0.74308914  0.76665965    -0.16500
C717        C  0.15527957  0.66804058  0.70671786    -0.13600
C718        C  0.12211073  0.67195926  0.70792592    -0.28800
H719        H  0.16900717  0.66342770  0.72678176     0.15400
H720        H  0.10947948  0.67830121  0.68761193     0.16000
C721        C  0.13559626  0.77383140  0.62363316    -0.13600
C722        C  0.12176669  0.77870074  0.65022415    -0.28800
H723        H  0.12623867  0.78643332  0.60421224     0.15400
H724        H  0.12929245  0.76334544  0.66880739     0.16000
C725        C  0.27622620  0.62046223  0.10249872    -0.13600
C726        C  0.24334013  0.61912176  0.10471848    -0.28800
H727        H  0.28909837  0.64402206  0.10595780     0.15400
H728        H  0.23080447  0.59527384  0.10199134     0.16000
C729        C  0.19003046  0.92171531  0.87666783    -0.13600
C730        C  0.15919221  0.93414095  0.87948915    -0.28800
H731        H  0.21076301  0.93614506  0.88484312     0.15400
H732        H  0.13860443  0.92141560  0.86911165     0.16000
C733        C  0.15498045  0.64949763  0.98320196    -0.13600
C734        C  0.18226916  0.66345770  0.99507441    -0.28800
H735        H  0.13072944  0.65759363  0.99048689     0.15400
H736        H  0.20616190  0.65548750  0.98676593     0.16000
C737        C  0.11597606  0.57448687  0.88034007    -0.15700
C738        C  0.09907668  0.58848623  0.86237754     0.08400
C739        C  0.08386751  0.60876068  0.84090058     0.10200
C740        C  0.07279276  0.62926095  0.82416451    -0.16500
C741        C  0.22188902  0.53387229  0.95047826    -0.15700
C742        C  0.24381354  0.53039290  0.96774679     0.08400
C743        C  0.26876681  0.53183881  0.98882154     0.10200
C744        C  0.29050410  0.53688809  0.00601773    -0.16500
C745        C  0.45020642  0.67150687  0.83530585    -0.13600
C746        C  0.42318300  0.68640261  0.82412089    -0.28800
H747        H  0.45070034  0.66409771  0.85834097     0.15400
H748        H  0.42179314  0.69092009  0.80057405     0.16000
C749        C  0.36264331  0.64959102  0.97305719    -0.13600
C750        C  0.33605590  0.66533800  0.96192354    -0.28800
H751        H  0.38713658  0.65540352  0.96476431     0.15400
H752        H  0.31199558  0.65954703  0.97121810     0.16000
C753        C  0.27331917  0.61652500  0.85544570    -0.13600
C754        C  0.24040634  0.61829641  0.85622825    -0.28800
H755        H  0.28547270  0.59259121  0.85862087     0.15400
H756        H  0.22807310  0.64195117  0.85203170     0.16000
C757        C  0.31803095  0.92552290  0.08285311    -0.13600
C758        C  0.34765779  0.93795287  0.07462006    -0.28800
H759        H  0.29594139  0.94039612  0.07979001     0.15400
H760        H  0.37003136  0.92460136  0.08033434     0.16000
C761        C  0.38001380  0.84593609  0.19947099    -0.13600
C762        C  0.37810864  0.85573673  0.22797941    -0.28800
H763        H  0.40430708  0.83998266  0.19081231     0.15400
H764        H  0.35480628  0.86425293  0.23714691     0.16000
C765        C  0.07376895  0.66984609  0.13001064    -0.13600
C766        C  0.08764771  0.69956786  0.12284337    -0.28800
H767        H  0.08638465  0.64663938  0.12454370     0.15400
H768        H  0.07381593  0.72257615  0.12585810     0.16000
C769        C  0.39902732  0.57280276  0.07523294    -0.15700
C770        C  0.41730492  0.58428481  0.09353551     0.08400
C771        C  0.43412638  0.60078255  0.11655221     0.10200
C772        C  0.44586983  0.61759450  0.13597237    -0.16500
C773        C  0.39227163  0.74334086  0.14345462    -0.13600
C774        C  0.37821267  0.74917619  0.11729091    -0.28800
H775        H  0.38337758  0.75639216  0.16305214     0.15400
H776        H  0.38888813  0.73948631  0.09698501     0.16000
C777        C  0.49363305  0.71233302  0.21630153    -0.15700
C778        C  0.49923801  0.73664765  0.23096299     0.08400
C779        C  0.49933387  0.76678858  0.24671875     0.10200
C780        C  0.49396182  0.79186260  0.26046250    -0.16500
C781        C  0.36515193  0.68415917  0.25449453    -0.13600
C782        C  0.37330965  0.65556079  0.24006853    -0.28800
H783        H  0.37971126  0.70641266  0.25004941     0.15400
H784        H  0.35860199  0.63312523  0.24322256     0.16000
C785        C  0.38196521  0.76717382  0.36233294    -0.13600
C786        C  0.41301505  0.75960546  0.35464120    -0.28800
H787        H  0.37427244  0.79316287  0.36340705     0.15400
H788        H  0.41953102  0.73346809  0.35116571     0.16000
C789        C  0.09270843  0.83194947  0.32106558    -0.13600
C790        C  0.08188151  0.86348241  0.31671693    -0.28800
H791        H  0.07744679  0.81082783  0.31468136     0.15400
H792        H  0.09550764  0.88446357  0.32588156     0.16000
C793        C  0.34296167  0.57595260  0.37629881    -0.13600
C794        C  0.32489265  0.60177994  0.38681042    -0.28800
H795        H  0.35365800  0.57740016  0.35431511     0.15400
H796        H  0.31674637  0.60159953  0.40965284     0.16000
C797        C  0.40138914  0.95151893  0.38736301    -0.15700
C798        C  0.41849569  0.93651433  0.37005854     0.08400
C799        C  0.43451611  0.91544898  0.34956215     0.10200
C800        C  0.44601249  0.89526745  0.33263882    -0.16500
C801        C  0.27956626  0.89133385  0.39106632    -0.13600
C802        C  0.26901548  0.88105253  0.36457302    -0.28800
H803        H  0.26938992  0.88019581  0.41100341     0.15400
H804        H  0.27653081  0.89427260  0.34473623     0.16000
C805        C  0.16882001  0.57652997  0.57923748    -0.13600
C806        C  0.17973519  0.60558770  0.56768488    -0.28800
H807        H  0.16663441  0.57403840  0.60303621     0.15400
H808        H  0.17899876  0.60916894  0.54396330     0.16000
C809        C  0.15536013  0.88256126  0.46969420    -0.13600
C810        C  0.16016415  0.88572582  0.44038437    -0.28800
H811        H  0.15186485  0.85805802  0.47954238     0.15400
H812        H  0.16161550  0.91100734  0.43166765     0.16000
C813        C  0.07787317  0.90862024  0.63954028    -0.15700
C814        C  0.09037902  0.92386423  0.61961773     0.08400
C815        C  0.10747919  0.93931650  0.59636123     0.10200
C816        C  0.12469828  0.95110229  0.57743708    -0.16500
C817        C  0.21968669  0.00057489  0.49913717    -0.15700
C818        C  0.24465352  0.00654970  0.48605978     0.08400
C819        C  0.27563354  0.00670629  0.47260744     0.10200
C820        C  0.30105719  0.00084456  0.46020777    -0.16500
C821        C  0.41666200  0.83972131  0.63827398    -0.13600
C822        C  0.44425891  0.85308236  0.62633831    -0.28800
H823        H  0.41475424  0.83721510  0.66204184     0.15400
H824        H  0.44519971  0.85837283  0.60286026     0.16000
C825        C  0.33532701  0.87156875  0.50374779    -0.13600
C826        C  0.36377507  0.88321467  0.49188941    -0.28800
H827        H  0.31237876  0.88297506  0.49678666     0.15400
H828        H  0.38701597  0.87157064  0.49767392     0.16000
C829        C  0.25543470  0.89717358  0.60880093    -0.13600
C830        C  0.26052981  0.92662326  0.59531337    -0.28800
H831        H  0.23062407  0.88915048  0.61431551     0.15400
H832        H  0.28546741  0.93330198  0.58866230     0.16000
O833        O  0.79938484  0.25494602  0.56689405    -0.55000
C834        C  0.84657510  0.33792374  0.52295428     0.77600
O835        O  0.81008921  0.36299375  0.59868090    -0.56100
C836        C  0.79464928  0.24396451  0.59284119     0.77600
C837        C  0.88708334  0.32580178  0.61843067     0.80000
Cd838      Cd  0.83027060  0.30868086  0.58128574     1.37500
O839        O  0.86325278  0.31348245  0.53281656    -0.55000
O840        O  0.89127666  0.31463995  0.59247083    -0.53800
C841        C  0.77993543  0.35611709  0.59536944     0.80000
O842        O  0.85764996  0.32619133  0.62774284    -0.56200
O843        O  0.82106341  0.34516915  0.53776433    -0.54600
O844        O  0.81056647  0.25921737  0.61271138    -0.54600
O845        O  0.77296070  0.32658208  0.58772373    -0.53800
C846        C  0.65275110  0.46286067  0.55898392     0.32800
C847        C  0.69805152  0.48701979  0.52160315     0.32800
C848        C  0.65312812  0.50152204  0.55622451    -0.03400
C849        C  0.68819136  0.45509124  0.56716811    -0.04100
C850        C  0.65026192  0.44930875  0.52699861    -0.04000
C851        C  0.66854292  0.99489814  0.51727228    -0.03400
C852        C  0.71161580  0.46777770  0.54801453    -0.04100
C853        C  0.67373107  0.46271809  0.50759108    -0.04000
C854        C  0.67933126  0.02694363  0.52419633    -0.29400
N855        N  0.65967861  0.04050030  0.54518555     0.17100
C856        C  0.63657923  0.01731959  0.55226967    -0.29400
H857        H  0.62046879  0.01929358  0.57130473     0.19000
C858        C  0.74168601  0.45594603  0.55688817    -0.28400
N859        N  0.73681206  0.43592107  0.58064114     0.15800
C860        C  0.70412713  0.43531025  0.58725610    -0.28400
C861        C  0.67900714  0.43957860  0.48559146    -0.28700
N862        N  0.65962144  0.41244125  0.49016283     0.16300
H863        H  0.69848990  0.44087809  0.46921280     0.18900
C864        C  0.64322404  0.41734898  0.51605997    -0.28700
H865        H  0.62911013  0.39822643  0.52734742     0.18900
H866        H  0.69266231  0.42000297  0.60410006     0.18900
H867        H  0.70236809  0.03787780  0.51689447     0.19000
H868        H  0.76493615  0.45915470  0.54540431     0.18900
C869        C  0.87285849  0.46770735  0.40799068     0.32800
C870        C  0.82855267  0.49577113  0.44365425     0.32800
C871        C  0.87697671  0.50613231  0.41247639    -0.03400
C872        C  0.83757410  0.46503455  0.39681800    -0.04100
C873        C  0.87100249  0.45180246  0.43942971    -0.04000
C874        C  0.84979909  0.01227125  0.42663780    -0.03400
C875        C  0.81429608  0.47973863  0.41564897    -0.04100
C876        C  0.84824017  0.46782717  0.45794751    -0.04000
C877        C  0.83869057  0.04269343  0.41662059    -0.29400
N878        N  0.85645851  0.05206670  0.39280497     0.17100
C879        C  0.87852652  0.02730943  0.38698089    -0.29400
H880        H  0.89264400  0.02553175  0.36670110     0.19000
C881        C  0.78569132  0.46163971  0.41244424    -0.28400
N882        N  0.79035175  0.43749142  0.39198374     0.15800
C883        C  0.82205060  0.43873437  0.38277899    -0.28400
C884        C  0.83678542  0.44483494  0.47799342    -0.28700
N885        N  0.85081737  0.41476831  0.47310760     0.16300
H886        H  0.81610426  0.44880261  0.49280412     0.18900
C887        C  0.87087799  0.41815004  0.44896687    -0.28700
H888        H  0.88135431  0.39724921  0.43693947     0.18900
H889        H  0.83426638  0.41889448  0.37063594     0.18900
H890        H  0.81575747  0.05432256  0.42333391     0.19000
H891        H  0.76450907  0.46289368  0.42703767     0.18900
O892        O  0.67401248  0.32862877  0.42431751    -0.55000
C893        C  0.72826467  0.25908733  0.35453920     0.77600
O894        O  0.65021737  0.34293747  0.33433325    -0.56100
C895        C  0.67068900  0.36001891  0.41981997     0.77600
C896        C  0.74302532  0.36396340  0.36294970     0.80000
Cd897      Cd  0.68973089  0.31920112  0.36944553     1.37500
O898        O  0.71828354  0.26433989  0.38084976    -0.55000
O899        O  0.73841097  0.34632758  0.38575668    -0.53800
C900        C  0.62675718  0.32336325  0.34094275     0.80000
O901        O  0.72465174  0.35846266  0.34084764    -0.56200
O902        O  0.71744738  0.27902191  0.33517649    -0.54600
O903        O  0.67455797  0.36984903  0.39363664    -0.54600
O904        O  0.63304772  0.30005803  0.35905445    -0.53800
O905        O  0.76247619  0.22734888  0.32058541    -0.55000
C906        C  0.84292107  0.18355078  0.27431301     0.77600
O907        O  0.86938039  0.22178563  0.34893359    -0.56100
C908        C  0.75410632  0.23385103  0.34703588     0.77600
C909        C  0.82604386  0.13762914  0.36715400     0.80000
Cd910      Cd  0.81609181  0.19823296  0.33295860     1.37500
O911        O  0.81195709  0.18120656  0.27854229    -0.55000
O912        O  0.81693552  0.13598959  0.34050045    -0.53800
C913        C  0.86198377  0.25165194  0.34259946     0.80000
O914        O  0.82804619  0.16661981  0.37826111    -0.56200
O915        O  0.85966303  0.19220982  0.29644266    -0.54600
O916        O  0.77152307  0.22026950  0.36673414    -0.54600
O917        O  0.83284823  0.25700103  0.33434032    -0.53800
C918        C  0.95801831  0.16401172  0.14612239     0.32800
C919        C  0.97970530  0.21962418  0.17279058     0.32800
C920        C  0.99505988  0.16356215  0.15420874    -0.03400
C921        C  0.95508657  0.19605008  0.12765280    -0.04100
C922        C  0.93990678  0.17312171  0.17510214    -0.04000
C923        C  0.00586453  0.19276199  0.16891372    -0.03400
C924        C  0.96697733  0.22502475  0.14148367    -0.04100
C925        C  0.95152761  0.20182630  0.18849909    -0.04000
C926        C  0.53419278  0.16604326  0.17450091    -0.29400
N927        N  0.54136880  0.15045303  0.14898955     0.17100
C928        C  0.51453843  0.13245010  0.14087499    -0.29400
H929        H  0.51155315  0.12160144  0.11914214     0.19000
C930        C  0.95012327  0.25164799  0.12987664    -0.28400
N931        N  0.92841066  0.24018664  0.10977096     0.15800
C932        C  0.93055230  0.20635345  0.10877377    -0.28400
C933        C  0.93385581  0.20688705  0.21396915    -0.28700
N934        N  0.91102850  0.18229756  0.21657009     0.16300
H935        H  0.93788306  0.22660788  0.22999763     0.18900
C936        C  0.91442110  0.16120121  0.19298112    -0.28700
H937        H  0.90051705  0.13836765  0.18975179     0.18900
H938        H  0.91266541  0.19016518  0.09829124     0.18900
H939        H  0.54920470  0.18564188  0.18408448     0.19000
H940        H  0.94969094  0.27672402  0.13903766     0.18900
C941        C  0.95680873  0.38774087  0.30268475     0.32800
C942        C  0.98005038  0.34530191  0.26194426     0.32800
C943        C  0.99411253  0.39142997  0.29600939    -0.03400
C944        C  0.95367083  0.35076732  0.31057750    -0.04100
C945        C  0.93939938  0.38987894  0.27241161    -0.04000
C946        C  0.50648680  0.34507802  0.27970325    -0.03400
C947        C  0.96583796  0.32877194  0.28959557    -0.04100
C948        C  0.95203986  0.36764823  0.25124693    -0.04000
C949        C  0.53900976  0.33926763  0.28608456    -0.29400
N950        N  0.54870062  0.35986543  0.30792552     0.17100
C951        C  0.52255683  0.37921528  0.31574498    -0.29400
H952        H  0.52177431  0.39452057  0.33547843     0.19000
C953        C  0.95589517  0.29715357  0.29753312    -0.28400
N954        N  0.93760594  0.29962701  0.32259471     0.15800
C955        C  0.93612703  0.33234748  0.33080502    -0.28400
C956        C  0.92632584  0.35885735  0.23295158    -0.28700
N957        N  0.89854958  0.37502564  0.24135993     0.16300
H958        H  0.92729553  0.33955412  0.21615789     0.18900
C959        C  0.90599660  0.39352584  0.26564604    -0.28700
H960        H  0.88778861  0.40589012  0.27937067     0.18900
H961        H  0.92125283  0.34228090  0.34866728     0.18900
H962        H  0.55322636  0.31816416  0.27808015     0.19000
H963        H  0.95867768  0.27461268  0.28443793     0.18900
O964        O  0.74647216  0.29831393  0.14523554    -0.55000
C965        C  0.83282158  0.33644751  0.19225591     0.77600
O966        O  0.84772054  0.30568750  0.10440134    -0.56100
C967        C  0.73979862  0.29229215  0.11835000     0.77600
C968        C  0.81205239  0.38888382  0.10439360     0.80000
Cd969      Cd  0.80171311  0.32590099  0.13455540     1.37500
O970        O  0.81408644  0.35897189  0.18204562    -0.55000
O971        O  0.78416252  0.38083038  0.11502996    -0.53800
C972        C  0.84508491  0.27556465  0.11277485     0.80000
O973        O  0.83501046  0.36775827  0.10728082    -0.56200
O974        O  0.83238383  0.30886245  0.17870184    -0.54600
O975        O  0.75886090  0.30555818  0.09957362    -0.54600
O976        O  0.82092532  0.26845214  0.12922768    -0.53800
O977        O  0.79806625  0.26387126  0.88681387    -0.55000
C978        C  0.82783413  0.18532853  0.93606882     0.77600
O979        O  0.82257022  0.14876016  0.86297422    -0.56100
C980        C  0.78731587  0.26843727  0.86088578     0.77600
C981        C  0.88758307  0.20098117  0.84297914     0.80000
Cd982      Cd  0.82640822  0.20840173  0.87525377     1.37500
O983        O  0.80176799  0.18755501  0.92108995    -0.55000
O984        O  0.88812046  0.20747083  0.87037760    -0.53800
C985        C  0.79175233  0.14896673  0.85988992     0.80000
O986        O  0.85970975  0.20137685  0.83072286    -0.56200
O987        O  0.85350670  0.19837420  0.92478839    -0.54600
O988        O  0.79818090  0.24849877  0.84150292    -0.54600
O989        O  0.77765947  0.17715265  0.86073667    -0.53800
C990        C  0.64145758  0.06313294  0.90382761     0.32800
C991        C  0.69212932  0.04501320  0.93817000     0.32800
C992        C  0.64370681  0.02502837  0.91013546    -0.03400
C993        C  0.67564504  0.07075479  0.89143906    -0.04100
C994        C  0.64214572  0.08004157  0.93463096    -0.04000
C995        C  0.67017341  0.01597555  0.92858133    -0.03400
C996        C  0.70183985  0.06141726  0.90898395    -0.04100
C997        C  0.66838316  0.07010460  0.95211276    -0.04000
C998        C  0.66569207  0.47513579  0.92977414    -0.29400
N999        N  0.64888063  0.46675100  0.90526431     0.17100
C1000       C  0.63970651  0.99807014  0.89093259    -0.29400
H1001       H  0.62439477  0.99800501  0.87145643     0.19000
C1002       C  0.72973152  0.07538917  0.89690783    -0.28400
N1003       N  0.72084592  0.09291735  0.87247028     0.15800
C1004       C  0.68783099  0.09037982  0.86912992    -0.28400
C1005       C  0.67298698  0.09418855  0.97344564    -0.28700
N1006       N  0.65016198  0.11863921  0.97020792     0.16300
H1007       H  0.69287154  0.09466216  0.98926289     0.18900
C1008       C  0.63138660  0.11055838  0.94632509    -0.28700
H1009       H  0.61303901  0.12684092  0.93677118     0.18900
H1010       H  0.67346054  0.10451995  0.85343709     0.18900
H1011       H  0.68489459  0.45991299  0.93936438     0.19000
H1012       H  0.75379480  0.07603882  0.90707837     0.18900
C1013       C  0.86802583  0.06844455  0.06184949     0.32800
C1014       C  0.81418208  0.04982516  0.03202146     0.32800
C1015       C  0.86691132  0.03079916  0.05347775    -0.03400
C1016       C  0.83544606  0.07320172  0.07854912    -0.04100
C1017       C  0.86222157  0.08739156  0.03266330    -0.04000
C1018       C  0.83874501  0.02160634  0.03714692    -0.03400
C1019       C  0.80735435  0.06308224  0.06318366    -0.04100
C1020       C  0.83439431  0.07744810  0.01762651    -0.04000
C1021       C  0.82849618  0.47656655  0.04654540    -0.29400
N1022       N  0.85024709  0.46523005  0.06653508     0.17100
C1023       C  0.87362370  0.00317287  0.07123742    -0.29400
H1024       H  0.89048740  0.00304948  0.08965568     0.19000
C1025       C  0.78135076  0.08091476  0.07469225    -0.28400
N1026       N  0.79252664  0.10096739  0.09667501     0.15800
C1027       C  0.82555264  0.09742201  0.09838800    -0.28400
C1028       C  0.82827998  0.10058127  0.99594344    -0.28700
N1029       N  0.85189467  0.12467466  0.99691795     0.16300
H1030       H  0.80750181  0.10026391  0.98107966     0.18900
C1031       C  0.87289507  0.11687111  0.01930444    -0.28700
H1032       H  0.89324619  0.13240631  0.02638087     0.18900
H1033       H  0.84163221  0.11412684  0.11047955     0.18900
H1034       H  0.80577816  0.46398378  0.04082758     0.19000
H1035       H  0.75718457  0.08288999  0.06483257     0.18900
O1036       O  0.70703954  0.26286856  0.08216273    -0.55000
C1037       C  0.67479873  0.18237853  0.02870486     0.77600
O1038       O  0.69009272  0.15323897  0.11320963    -0.56100
C1039       C  0.71420707  0.26768929  0.10908642     0.77600
C1040       C  0.61487621  0.19604440  0.11599519     0.80000
Cd1041     Cd  0.67859993  0.20720687  0.08957907     1.37500
O1042       O  0.70113101  0.18477547  0.04317785    -0.55000
O1043       O  0.62241408  0.22476054  0.10595834    -0.53800
C1044       C  0.72090632  0.15555241  0.10996821     0.80000
O1045       O  0.63685051  0.17373912  0.11456641    -0.56200
O1046       O  0.64975450  0.19620671  0.04023614    -0.54600
O1047       O  0.70118473  0.24754913  0.12724031    -0.54600
O1048       O  0.73199957  0.18303577  0.10039879    -0.53800
O1049       O  0.70779946  0.17034708  0.67240871    -0.55000
C1050       C  0.76896046  0.21787700  0.59996531     0.77600
O1051       O  0.67931316  0.13964396  0.58181143    -0.56100
C1052       C  0.67833541  0.15944123  0.67368746     0.77600
C1053       C  0.66269442  0.23221802  0.60965668     0.80000
Cd1054     Cd  0.70831083  0.17841801  0.61593631     1.37500
O1055       O  0.76512268  0.20534782  0.62554255    -0.55000
O1056       O  0.68082607  0.22820210  0.63190077    -0.53800
C1057       C  0.70037028  0.11632717  0.58224454     0.80000
O1058       O  0.66694436  0.21215513  0.58828462    -0.56200
O1059       O  0.74728363  0.20942745  0.58137055    -0.54600
O1060       O  0.66490430  0.15445529  0.64900198    -0.54600
O1061       O  0.72619361  0.12190237  0.59722365    -0.53800
C1062       C  0.56039615  0.14596630  0.80097177     0.32800
C1063       C  0.53474318  0.19305238  0.76578585     0.32800
C1064       C  0.52219970  0.14435063  0.79739093    -0.03400
C1065       C  0.56526583  0.18191822  0.81154933    -0.04100
C1066       C  0.57491052  0.14700524  0.76901659    -0.04000
C1067       C  0.50939029  0.16834660  0.77770541    -0.03400
C1068       C  0.55175791  0.20604823  0.79353856    -0.04100
C1069       C  0.56091518  0.17126943  0.75123160    -0.04000
C1070       C  0.98034984  0.18929724  0.79353560    -0.29400
N1071       N  0.97154845  0.16939979  0.81616766     0.17100
C1072       C  0.49794962  0.14152371  0.81941251    -0.29400
H1073       H  0.99948359  0.13363358  0.84135920     0.19000
C1074       C  0.55929997  0.23669180  0.80540365    -0.28400
N1075       N  0.57759551  0.23180799  0.82997044     0.15800
C1076       C  0.58130290  0.19826206  0.83407474    -0.28400
C1077       C  0.57926045  0.17376871  0.72574500    -0.28700
N1078       N  0.60503043  0.15231633  0.72718296     0.16300
H1079       H  0.57495705  0.19108921  0.70783442     0.18900
C1080       C  0.60298437  0.13590115  0.75365383    -0.28700
H1081       H  0.62073282  0.11778393  0.76138175     0.18900
H1082       H  0.59561717  0.18659518  0.85127144     0.18900
H1083       H  0.96778553  0.21226354  0.78786154     0.19000
H1084       H  0.55377627  0.26084028  0.79582442     0.18900
C1085       C  0.56439071  0.37405296  0.65437868     0.32800
C1086       C  0.53946769  0.32756903  0.69025472     0.32800
C1087       C  0.52670805  0.37633330  0.65924610    -0.03400
C1088       C  0.56904283  0.33806191  0.64331607    -0.04100
C1089       C  0.57937804  0.37360912  0.68570970    -0.04000
C1090       C  0.51418805  0.35246385  0.67904913    -0.03400
C1091       C  0.55568974  0.31377462  0.66215539    -0.04100
C1092       C  0.56613416  0.34916515  0.70414523    -0.04000
C1093       C  0.97442048  0.35128441  0.67391911    -0.29400
N1094       N  0.96792874  0.36434568  0.64713709     0.17100
C1095       C  0.50184876  0.38061803  0.63845140    -0.29400
H1096       H  0.99853181  0.39287481  0.61741202     0.19000
C1097       C  0.57474289  0.28557715  0.65888337    -0.28400
N1098       N  0.59818164  0.29119950  0.63829457     0.15800
C1099       C  0.59572355  0.32334020  0.62928697    -0.28400
C1100       C  0.58946122  0.34168153  0.72504860    -0.28700
N1101       N  0.61627563  0.36137370  0.72083157     0.16300
H1102       H  0.58763615  0.32186148  0.74122367     0.18900
C1103       C  0.61074222  0.38048354  0.69655803    -0.28700
H1104       H  0.62912307  0.39620555  0.68612668     0.18900
H1105       H  0.61486163  0.33652008  0.61728777     0.18900
H1106       H  0.96109194  0.33039994  0.68338694     0.19000
H1107       H  0.57462362  0.26426283  0.67361697     0.18900
O1108       O  0.75192922  0.29850565  0.82753928    -0.55000
C1109       C  0.67591651  0.33201830  0.77936460     0.77600
O1110       O  0.64181100  0.30982233  0.85073577    -0.56100
C1111       C  0.76063625  0.29263607  0.85387936     0.77600
C1112       C  0.68893362  0.39022586  0.87014575     0.80000
Cd1113     Cd  0.69840035  0.32680890  0.84023089     1.37500
O1114       O  0.68786728  0.35752059  0.79211636    -0.50200
O1115       O  0.71542715  0.38378222  0.85631230    -0.53800
C1116       C  0.64866318  0.28006799  0.85778878     0.80000
O1117       O  0.66758434  0.36718886  0.87101135    -0.56200
O1118       O  0.67910745  0.30459092  0.79276094    -0.54600
O1119       O  0.74288915  0.30573569  0.87385183    -0.54600
O1120       O  0.67879019  0.27317778  0.86090899    -0.53800
C1121       C  0.64513301  0.36177292  0.73947002    -0.13600
C1122       C  0.65616090  0.33330937  0.75194385    -0.28800
H1123       H  0.65568384  0.38572592  0.74577071     0.15400
H1124       H  0.64585171  0.30966318  0.74449134     0.16000
C1125       C  0.59479108  0.25861009  0.84442787    -0.13600
C1126       C  0.62346593  0.25364018  0.85841030    -0.28800
H1127       H  0.58796937  0.28399719  0.83835259     0.15400
H1128       H  0.63156439  0.22849128  0.86363899     0.16000
C1129       C  0.52580642  0.30156913  0.70901257    -0.15700
C1130       C  0.51808883  0.27659927  0.72169863     0.08400
C1131       C  0.51630506  0.24536219  0.73508772     0.10200
C1132       C  0.52179082  0.21974772  0.74760500    -0.16500
C1133       C  0.65953659  0.15489693  0.70217661    -0.13600
C1134       C  0.62704777  0.14668678  0.70228453    -0.28800
H1135       H  0.67123847  0.16206663  0.72272476     0.15400
H1136       H  0.61543294  0.14176203  0.68117348     0.16000
C1137       C  0.63684124  0.25799817  0.60979199    -0.13600
C1138       C  0.62687901  0.27080575  0.63570798    -0.28800
H1139       H  0.62386680  0.26404011  0.58960487     0.15400
H1140       H  0.63823686  0.26240311  0.65606111     0.16000
C1141       C  0.77464997  0.12883106  0.10844117    -0.13600
C1142       C  0.74224705  0.12639118  0.11356624    -0.28800
H1143       H  0.78670996  0.15314820  0.10881807     0.15400
H1144       H  0.73065580  0.10186959  0.11423538     0.16000
C1145       C  0.68361384  0.42268576  0.88505092    -0.13600
C1146       C  0.65341093  0.43620895  0.88873631    -0.28800
H1147       H  0.70516784  0.43624265  0.89268938     0.15400
H1148       H  0.63209456  0.42440219  0.87867132     0.16000
C1149       C  0.64726993  0.14788922  0.98915058    -0.13600
C1150       C  0.67440892  0.16189411  0.00125440    -0.28800
H1151       H  0.62292513  0.15629653  0.99588428     0.15400
H1152       H  0.69835086  0.15340140  0.99349708     0.16000
C1153       C  0.61539593  0.07411256  0.88375223    -0.15700
C1154       C  0.59940566  0.08619142  0.86414738     0.08400
C1155       C  0.58507383  0.10341875  0.84030119     0.10200
C1156       C  0.57416803  0.12092690  0.82106463    -0.16500
C1157       C  0.71909858  0.03599589  0.95756608    -0.15700
C1158       C  0.74004679  0.03263246  0.97576104     0.08400
C1159       C  0.76403872  0.03435666  0.99763400     0.10200
C1160       C  0.78560715  0.04000644  0.01481062    -0.16500
C1161       C  0.94339928  0.17573898  0.83515761    -0.13600
C1162       C  0.91731974  0.19350284  0.82532462    -0.28800
H1163       H  0.94323103  0.16591495  0.85748099     0.15400
H1164       H  0.91618348  0.20045533  0.80224052     0.16000
C1165       C  0.85451362  0.15273561  0.97676858    -0.13600
C1166       C  0.82745177  0.16575323  0.96388152    -0.28800
H1167       H  0.87882311  0.16134495  0.97012456     0.15400
H1168       H  0.80337917  0.15740023  0.97141611     0.16000
C1169       C  0.77302269  0.11769439  0.85913059    -0.13600
C1170       C  0.74012190  0.11849747  0.85861398    -0.28800
H1171       H  0.78572562  0.09475953  0.86500757     0.15400
H1172       H  0.72755054  0.14113650  0.85160124     0.16000
C1173       C  0.81692009  0.42105399  0.08889271    -0.13600
C1174       C  0.84686518  0.43452603  0.08313425    -0.28800
H1175       H  0.79482224  0.43441442  0.08254039     0.15400
H1176       H  0.86888320  0.42258487  0.09163520     0.16000
C1177       C  0.85683254  0.34144656  0.21662518    -0.13600
C1178       C  0.86670181  0.37146908  0.22723501    -0.28800
H1179       H  0.87121328  0.31955737  0.22253186     0.15400
H1180       H  0.85251163  0.39381807  0.22245494     0.16000
C1181       C  0.57005134  0.15758822  0.13122401    -0.13600
C1182       C  0.58253804  0.18894976  0.12957773    -0.28800
H1183       H  0.58207312  0.13712474  0.11959454     0.15400
H1184       H  0.56897479  0.20982564  0.13904762     0.16000
C1185       C  0.89652531  0.07971583  0.07892435    -0.15700
C1186       C  0.91568478  0.09312204  0.09533877     0.08400
C1187       C  0.93357152  0.11324395  0.11516105     0.10200
C1188       C  0.94588908  0.13417650  0.13075157    -0.16500
C1189       C  0.90124329  0.26008981  0.10021069    -0.13600
C1190       C  0.87039937  0.25042763  0.10647974    -0.28800
H1191       H  0.90606622  0.28629054  0.09535591     0.15400
H1192       H  0.86576311  0.22502477  0.11395939     0.16000
C1193       C  0.99109125  0.24963861  0.18779812    -0.15700
C1194       C  0.99707563  0.27389752  0.20226811     0.08400
C1195       C  0.99768805  0.30091326  0.22171769     0.10200
C1196       C  0.99220563  0.32210049  0.23970454    -0.16500
C1197       C  0.85940862  0.17783186  0.24518287    -0.13600
C1198       C  0.89268055  0.17732883  0.24352133    -0.28800
H1199       H  0.84477521  0.17700520  0.22521737     0.15400
H1200       H  0.90659639  0.17939506  0.26386680     0.16000
C1201       C  0.88627338  0.27877139  0.34239461    -0.13600
C1202       C  0.91738184  0.27293817  0.33364249    -0.28800
H1203       H  0.87703099  0.30424353  0.34333250     0.15400
H1204       H  0.92528296  0.24732115  0.32958407     0.16000
C1205       C  0.59380388  0.32705801  0.32783902    -0.13600
C1206       C  0.57971530  0.35720155  0.32312771    -0.28800
H1207       H  0.58024150  0.30432390  0.32282528     0.15400
H1208       H  0.59168774  0.37986316  0.33095007     0.16000
C1209       C  0.84851230  0.08005580  0.37395403    -0.13600
C1210       C  0.83386839  0.10776550  0.38499358    -0.28800
H1211       H  0.85549384  0.07913750  0.35077942     0.15400
H1212       H  0.82984655  0.10976632  0.40863648     0.16000
C1213       C  0.89723220  0.45314762  0.38780339    -0.15700
C1214       C  0.91442498  0.44115783  0.36885448     0.08400
C1215       C  0.93146139  0.42578667  0.34536970     0.10200
C1216       C  0.94385536  0.41030775  0.32542408    -0.16500
C1217       C  0.76837055  0.40983382  0.38849647    -0.13600
C1218       C  0.76689441  0.39144776  0.36372931    -0.28800
H1219       H  0.75138495  0.40446648  0.40655503     0.15400
H1220       H  0.78109625  0.39809031  0.34424221     0.16000
C1221       C  0.66476902  0.07194826  0.56047389    -0.13600
C1222       C  0.69517872  0.08430913  0.56607031    -0.28800
H1223       H  0.64333422  0.08508482  0.56906474     0.15400
H1224       H  0.71676274  0.06978271  0.56001181     0.16000
C1225       C  0.65994902  0.38266053  0.47175321    -0.13600
C1226       C  0.66445320  0.38616373  0.44246363    -0.28800
H1227       H  0.65708042  0.35803804  0.48152974     0.15400
H1228       H  0.66512328  0.41154645  0.43389004     0.16000
C1229       C  0.57818215  0.39947546  0.63476576    -0.15700
C1230       C  0.59178642  0.41784243  0.61766769     0.08400
C1231       C  0.61025942  0.43620876  0.59704553     0.10200
C1232       C  0.62825048  0.44942796  0.57947917    -0.16500
C1233       C  0.72355100  0.50034850  0.50231402    -0.15700
C1234       C  0.74763929  0.50971852  0.48952044     0.08400
C1235       C  0.77798771  0.51444274  0.47569638     0.10200
C1236       C  0.80312381  0.51024720  0.46242156    -0.16500
C1237       C  0.91446282  0.33763081  0.63755814    -0.13600
C1238       C  0.94205640  0.35299756  0.62741362    -0.28800
H1239       H  0.91044324  0.33578646  0.66117546     0.15400
H1240       H  0.94476902  0.35741685  0.60388642     0.16000
C1241       C  0.85746067  0.35914826  0.49725381    -0.13600
C1242       C  0.83872137  0.38529641  0.48851905    -0.28800
H1243       H  0.88236828  0.35643388  0.48875715     0.15400
H1244       H  0.81429120  0.38741408  0.49832747     0.16000
C1245       C  0.75423253  0.38166833  0.59741992    -0.13600
C1246       C  0.76152068  0.41373347  0.59161208    -0.28800
H1247       H  0.72877652  0.37328803  0.59728358     0.15400
H1248       H  0.78716429  0.42113595  0.58902223     0.16000
O1249       O  0.81624795  0.76328848  0.58305708    -0.55000
C1250       C  0.85451313  0.86143235  0.54379901     0.77600
O1251       O  0.80365664  0.86328416  0.62081673    -0.56100
C1252       C  0.80671849  0.75692583  0.60925832     0.77600
C1253       C  0.89467519  0.83614446  0.63100560     0.80000
Cd1254     Cd  0.83806589  0.82134727  0.59556131     1.37500
O1255       O  0.85583663  0.82966880  0.54084382    -0.55000
O1256       O  0.89830423  0.82325313  0.60555758    -0.53800
C1257       C  0.78019495  0.86047788  0.60269765     0.80000
O1258       O  0.86551804  0.83896764  0.64062600    -0.56200
O1259       O  0.84701867  0.87219432  0.56912069    -0.54600
O1260       O  0.81619647  0.77723989  0.62887654    -0.54600
O1261       O  0.78281274  0.83803603  0.58308453    -0.53800
C1262       C  0.63840349  0.95188672  0.54531295     0.32800
C1263       C  0.69042308  0.96439228  0.51122166     0.32800
C1264       C  0.64115120  0.98853134  0.53535793    -0.03400
C1265       C  0.67169885  0.94501815  0.55990181    -0.04100
C1266       C  0.63978321  0.93065948  0.51669771    -0.04000
C1267       C  0.67628750  0.51363857  0.53561862    -0.03400
C1268       C  0.69907627  0.95214306  0.54209708    -0.04100
C1269       C  0.66773779  0.93665351  0.49894754    -0.04000
C1270       C  0.68684984  0.54434995  0.54520958    -0.29400
N1271       N  0.67229478  0.55178415  0.57115658     0.17100
C1272       C  0.65257595  0.52560857  0.57860321    -0.29400
H1273       H  0.64180455  0.52224431  0.60029029     0.19000
C1274       C  0.72362884  0.93053567  0.55044020    -0.28400
N1275       N  0.71262294  0.91138655  0.57288397     0.15800
C1276       C  0.68073771  0.91886130  0.57806600    -0.28400
C1277       C  0.67763942  0.90526680  0.48831393    -0.28700
N1278       N  0.65661087  0.88103882  0.49767974     0.16300
H1279       H  0.70223780  0.89992867  0.48019238     0.18900
C1280       C  0.63372811  0.89659914  0.51477158    -0.28700
H1281       H  0.61822785  0.88327249  0.53035780     0.18900
H1282       H  0.66418740  0.90351234  0.59106811     0.18900
H1283       H  0.70811148  0.55742432  0.53642308     0.19000
H1284       H  0.74617859  0.92574246  0.53820446     0.18900
C1285       C  0.87981262  0.96373776  0.40466899     0.32800
C1286       C  0.82841062  0.98355789  0.43744727     0.32800
C1287       C  0.87629694  0.00232656  0.40840964    -0.03400
C1288       C  0.84638514  0.95371965  0.39231827    -0.04100
C1289       C  0.87897120  0.94912802  0.43632516    -0.04000
C1290       C  0.85422889  0.52015890  0.43241179    -0.03400
C1291       C  0.81957155  0.96465622  0.40914869    -0.04100
C1292       C  0.85231933  0.96035460  0.45316327    -0.04000
C1293       C  0.84754563  0.55221945  0.42342878    -0.29400
N1294       N  0.86382160  0.55879732  0.39814057     0.17100
C1295       C  0.88116726  0.53082459  0.39086013    -0.29400
H1296       H  0.89228294  0.52675727  0.36939021     0.19000
C1297       C  0.79398751  0.94320517  0.40351910    -0.28400
N1298       N  0.80425611  0.91968219  0.38409013     0.15800
C1299       C  0.83646920  0.92484161  0.37812601    -0.28400
C1300       C  0.84619000  0.93708247  0.47473104    -0.28700
N1301       N  0.86802634  0.91162366  0.47234310     0.16300
H1302       H  0.82495903  0.93707024  0.48929253     0.18900
C1303       C  0.88704254  0.91776394  0.44804897    -0.28700
H1304       H  0.90415639  0.89997888  0.43848560     0.18900
H1305       H  0.85235049  0.90702590  0.36697647     0.18900
H1306       H  0.82714665  0.56700411  0.43171944     0.19000
H1307       H  0.77111959  0.94186897  0.41590321     0.18900
O1308       O  0.68092100  0.84516975  0.43761153    -0.55000
C1309       C  0.73124190  0.75765830  0.36709426     0.77600
O1310       O  0.64014293  0.84129307  0.36905643    -0.56100
C1311       C  0.67613527  0.81999879  0.45381086     0.77600
C1312       C  0.73211318  0.86344653  0.37639206     0.80000
Cd1313     Cd  0.68759303  0.81110411  0.39020196     1.37500
O1314       O  0.72259719  0.75907066  0.39399939    -0.55000
O1315       O  0.74087940  0.83824295  0.39118469    -0.53800
C1316       C  0.62366597  0.81591764  0.36147905     0.80000
O1317       O  0.70285914  0.86396599  0.36705341    -0.56200
O1318       O  0.71731675  0.77846568  0.35020911    -0.54600
O1319       O  0.67572948  0.79187896  0.44077012    -0.54600
O1320       O  0.63631128  0.78770908  0.36736548    -0.53800
O1321       O  0.76743332  0.73362929  0.32990642    -0.55000
C1322       C  0.84305182  0.69705187  0.27797260     0.77600
O1323       O  0.87983876  0.72228713  0.34784585    -0.56100
C1324       C  0.75860745  0.73560912  0.35673297     0.77600
C1325       C  0.83532456  0.64518790  0.37273021     0.80000
Cd1326     Cd  0.82254375  0.70545397  0.33971051     1.37500
O1327       O  0.83185216  0.72435624  0.28804092    -0.55000
O1328       O  0.82170418  0.64338073  0.34762217    -0.53800
C1329       C  0.87366661  0.75258068  0.35348483     0.80000
O1330       O  0.84086678  0.67422380  0.38274024    -0.56200
O1331       O  0.84073156  0.67207942  0.29498599    -0.54600
O1332       O  0.77658149  0.72003363  0.37475133    -0.54600
O1333       O  0.84371077  0.76054570  0.35551937    -0.53800
C1334       C  0.95320615  0.65139554  0.14795688     0.32800
C1335       C  0.97022155  0.70990739  0.17269285     0.32800
C1336       C  0.99000583  0.65421441  0.15651940    -0.03400
C1337       C  0.94795580  0.68221620  0.12828001    -0.04100
C1338       C  0.93403201  0.66060930  0.17644788    -0.04000
C1339       C  0.99819914  0.68468334  0.17034891    -0.03400
C1340       C  0.95771304  0.71278977  0.14097015    -0.04100
C1341       C  0.94291654  0.69101501  0.18866372    -0.04000
C1342       C  0.53814088  0.67505853  0.17359206    -0.29400
N1343       N  0.54575889  0.66099615  0.14736707     0.17100
C1344       C  0.52030195  0.64067923  0.13985105    -0.29400
H1345       H  0.51712200  0.63025489  0.11798111     0.19000
C1346       C  0.93771934  0.73707804  0.12930051    -0.28400
N1347       N  0.91613123  0.72286480  0.11038048     0.15800
C1348       C  0.92142777  0.68948139  0.11035735    -0.28400
C1349       C  0.92207849  0.69765159  0.21193427    -0.28700
N1350       N  0.90051696  0.67182080  0.21474186     0.16300
H1351       H  0.92270232  0.71966952  0.22590852     0.18900
C1352       C  0.90777190  0.64877306  0.19333903    -0.28700
H1353       H  0.89446988  0.62561138  0.18988257     0.18900
H1354       H  0.90413524  0.67129056  0.10174290     0.18900
H1355       H  0.55045820  0.69674083  0.18269386     0.19000
H1356       H  0.93499045  0.76208714  0.13828204     0.18900
C1357       C  0.96303622  0.88496726  0.30055814     0.32800
C1358       C  0.98226320  0.83926433  0.26055135     0.32800
C1359       C  0.00000164  0.88682143  0.29172933    -0.03400
C1360       C  0.95936614  0.84857318  0.31019968    -0.04100
C1361       C  0.94391874  0.88597763  0.27103038    -0.04000
C1362       C  0.50859907  0.84269135  0.29086688    -0.03400
C1363       C  0.96938098  0.82505693  0.28961868    -0.04100
C1364       C  0.95461195  0.86227273  0.25044787    -0.04000
C1365       C  0.53903836  0.83335254  0.30141857    -0.29400
N1366       N  0.54661747  0.85201296  0.32532403     0.17100
C1367       C  0.52101254  0.87305579  0.33059996    -0.29400
H1368       H  0.51833321  0.88780340  0.35053618     0.19000
C1369       C  0.96185568  0.79407392  0.30069742    -0.28400
N1370       N  0.94694187  0.79828826  0.32730613     0.15800
C1371       C  0.94553663  0.83159840  0.33349244    -0.28400
C1372       C  0.92868661  0.85533949  0.23197307    -0.28700
N1373       N  0.90226194  0.87398823  0.23983883     0.16300
H1374       H  0.92855868  0.83615044  0.21506828     0.18900
C1375       C  0.91092807  0.89229722  0.26403119    -0.28700
H1376       H  0.89382982  0.90695617  0.27711885     0.18900
H1377       H  0.93351313  0.84274801  0.35247701     0.18900
H1378       H  0.55295957  0.81186133  0.29387082     0.19000
H1379       H  0.96430603  0.77043879  0.28915914     0.18900
O1380       O  0.75396243  0.80423195  0.13825680    -0.55000
C1381       C  0.83701796  0.84239474  0.18651953     0.77600
O1382       O  0.85516264  0.82227954  0.09565866    -0.56100
C1383       C  0.74658476  0.79800112  0.11161202     0.77600
C1384       C  0.81407143  0.90083418  0.10168878     0.80000
Cd1385     Cd  0.80726582  0.83507385  0.12754185     1.37500
O1386       O  0.82179722  0.86687382  0.17529676    -0.55000
O1387       O  0.78778892  0.89246735  0.11516739    -0.53800
C1388       C  0.85649238  0.79180106  0.10294438     0.80000
O1389       O  0.83625521  0.87873086  0.09954790    -0.56200
O1390       O  0.83424196  0.81495752  0.17292680    -0.54600
O1391       O  0.76419903  0.81255616  0.09244279    -0.54600
O1392       O  0.83376292  0.78107612  0.11955408    -0.53800
O1393       O  0.79540853  0.75531934  0.88612074    -0.55000
C1394       C  0.82456288  0.67213639  0.93566367     0.77600
O1395       O  0.80646128  0.63856335  0.86527485    -0.56100
C1396       C  0.78775261  0.76211900  0.85964112     0.77600
C1397       C  0.88196753  0.68878034  0.84241784     0.80000
Cd1398     Cd  0.82047377  0.69755715  0.87474878     1.37500
O1399       O  0.79765332  0.67919720  0.92316299    -0.55000
O1400       O  0.88206494  0.69881618  0.86896873    -0.53800
C1401       C  0.77675970  0.64412690  0.85877434     0.80000
O1402       O  0.85403186  0.68428222  0.83086777    -0.56200
O1403       O  0.85041440  0.68133194  0.92209359    -0.54600
O1404       O  0.79844641  0.74175887  0.84053019    -0.54600
O1405       O  0.76828022  0.67436656  0.85661015    -0.53800
C1406       C  0.64252769  0.55804763  0.90816957     0.32800
C1407       C  0.68480675  0.53331782  0.94794792     0.32800
C1408       C  0.63718860  0.52055468  0.91572979    -0.03400
C1409       C  0.67878935  0.55879124  0.89901446    -0.04100
C1410       C  0.64252793  0.57624774  0.93836344    -0.04000
C1411       C  0.65932327  0.50799299  0.93709093    -0.03400
C1412       C  0.70051842  0.54599016  0.91943326    -0.04100
C1413       C  0.66451531  0.56308407  0.95869749    -0.04000
C1414       C  0.68053635  0.98459250  0.91991225    -0.29400
N1415       N  0.66176283  0.97364306  0.89737558     0.17100
C1416       C  0.63174157  0.49400566  0.89636606    -0.29400
H1417       H  0.62016596  0.49604075  0.87497659     0.19000
C1418       C  0.73181680  0.55296625  0.90962928    -0.28400
N1419       N  0.72959203  0.57011697  0.88390599     0.15800
C1420       C  0.69714537  0.57348469  0.87704975    -0.28400
C1421       C  0.67147895  0.58786450  0.97894937    -0.28700
N1422       N  0.65387113  0.61565572  0.97239870     0.16300
H1423       H  0.68955660  0.58625130  0.99637289     0.18900
C1424       C  0.63648970  0.60911027  0.94739233    -0.28700
H1425       H  0.62254675  0.62761352  0.93535987     0.18900
H1426       H  0.68738835  0.58774277  0.85885204     0.18900
H1427       H  0.70253700  0.97219029  0.92766283     0.19000
H1428       H  0.75437047  0.54899281  0.92181344     0.18900
C1429       C  0.86651510  0.55555719  0.06285880     0.32800
C1430       C  0.81125504  0.53709590  0.03509134     0.32800
C1431       C  0.86499962  0.51796176  0.05429864    -0.03400
C1432       C  0.83476402  0.56028873  0.08090716    -0.04100
C1433       C  0.85920115  0.57481512  0.03397319    -0.04000
C1434       C  0.83622238  0.50894105  0.03884770    -0.03400
C1435       C  0.80590881  0.55000438  0.06659046    -0.04100
C1436       C  0.83052075  0.56508550  0.02009516    -0.04000
C1437       C  0.83045059  0.98947047  0.04521364    -0.29400
N1438       N  0.85156382  0.97837477  0.06581030     0.17100
C1439       C  0.87238227  0.49009530  0.07160165    -0.29400
H1440       H  0.88972985  0.48989395  0.08965408     0.19000
C1441       C  0.78081999  0.56960668  0.07745467    -0.28400
N1442       N  0.79303171  0.59119778  0.09771635     0.15800
C1443       C  0.82590241  0.58645077  0.09927616    -0.28400
C1444       C  0.82432216  0.58733725  0.99765382    -0.28700
N1445       N  0.84872076  0.61067003  0.99696880     0.16300
H1446       H  0.80321434  0.58676378  0.98315221     0.18900
C1447       C  0.87037933  0.60313352  0.01900196    -0.28700
H1448       H  0.89182230  0.61792522  0.02453495     0.18900
H1449       H  0.84278140  0.60387876  0.10955936     0.18900
H1450       H  0.80786872  0.97680351  0.03917252     0.19000
H1451       H  0.75676687  0.57195830  0.06743085     0.18900
O1452       O  0.71277603  0.76629019  0.07711409    -0.55000
C1453       C  0.68255164  0.68050847  0.02859578     0.77600
O1454       O  0.69394635  0.65199633  0.10679525    -0.56100
C1455       C  0.72193347  0.77183511  0.10344621     0.77600
C1456       C  0.62681143  0.69921255  0.12068240     0.80000
Cd1457     Cd  0.68704059  0.70887016  0.08800673     1.37500
O1458       O  0.70954637  0.68560678  0.04166878    -0.55000
O1459       O  0.62548465  0.70711249  0.09360566    -0.53800
C1460       C  0.72497507  0.65242069  0.10607310     0.80000
O1461       O  0.65494529  0.69926609  0.13243751    -0.56200
O1462       O  0.65722150  0.69346136  0.04054404    -0.54600
O1463       O  0.71159642  0.75115791  0.12234454    -0.54600
O1464       O  0.73858527  0.67980271  0.09918241    -0.53800
O1465       O  0.71855662  0.67590399  0.68259763    -0.55000
C1466       C  0.78190148  0.73063040  0.61640694     0.77600
O1467       O  0.70043656  0.66559113  0.58551598    -0.56100
C1468       C  0.68721396  0.67435482  0.68389063     0.77600
C1469       C  0.67436260  0.74909918  0.61961212     0.80000
Cd1470     Cd  0.71931169  0.69555635  0.62884701     1.37500
O1471       O  0.77171775  0.72579066  0.64256203    -0.55000
O1472       O  0.69084298  0.74581375  0.64299065    -0.53800
C1473       C  0.70554402  0.63643715  0.59520072     0.80000
O1474       O  0.68075982  0.72919179  0.59863999    -0.56200
O1475       O  0.76647752  0.71501463  0.59652219    -0.54600
O1476       O  0.67224674  0.68177688  0.66041933    -0.54600
O1477       O  0.72000559  0.63406288  0.61984889    -0.53800
C1478       C  0.56815516  0.65360522  0.80803286     0.32800
C1479       C  0.54324556  0.70356379  0.77546394     0.32800
C1480       C  0.53038124  0.65140636  0.80249435    -0.03400
C1481       C  0.57144896  0.68855114  0.82152440    -0.04100
C1482       C  0.58412697  0.65808007  0.77701545    -0.04000
C1483       C  0.51808338  0.67709238  0.78417545    -0.03400
C1484       C  0.55828902  0.71414499  0.80482584    -0.04100
C1485       C  0.57055031  0.68378013  0.76064174    -0.04000
C1486       C  0.97834830  0.69192112  0.79688694    -0.29400
N1487       N  0.97004712  0.66947959  0.81782644     0.17100
C1488       C  0.50519187  0.64597462  0.82313770    -0.29400
H1489       H  0.99899010  0.63276180  0.84098629     0.19000
C1490       C  0.56559296  0.74375316  0.81862659    -0.28400
N1491       N  0.58349661  0.73689837  0.84304748     0.15800
C1492       C  0.58708721  0.70308856  0.84518275    -0.28400
C1493       C  0.58844869  0.68741510  0.73518433    -0.28700
N1494       N  0.61355730  0.66518168  0.73533003     0.16300
H1495       H  0.58412075  0.70569189  0.71802997     0.18900
C1496       C  0.61148582  0.64697598  0.76082194    -0.28700
H1497       H  0.62851018  0.62748183  0.76714706     0.18900
H1498       H  0.60174616  0.69020329  0.86146006     0.18900
H1499       H  0.96443571  0.71444388  0.79238336     0.19000
H1500       H  0.56097934  0.76858801  0.81006534     0.18900
C1501       C  0.56104830  0.87784041  0.65357321     0.32800
C1502       C  0.53723535  0.83306433  0.69156800     0.32800
C1503       C  0.52315104  0.87879882  0.65792200    -0.03400
C1504       C  0.56728071  0.84142499  0.64449387    -0.04100
C1505       C  0.57609067  0.88008171  0.68505768    -0.04000
C1506       C  0.51115847  0.85586704  0.67873299    -0.03400
C1507       C  0.55442715  0.81795433  0.66445640    -0.04100
C1508       C  0.56296653  0.85654765  0.70466416    -0.04000
C1509       C  0.98351259  0.86092321  0.68277373    -0.29400
N1510       N  0.97633980  0.87338345  0.65594734     0.17100
C1511       C  0.49860278  0.88057670  0.63647623    -0.29400
H1512       H  0.00629461  0.89946604  0.62414880     0.19000
C1513       C  0.57480157  0.79057293  0.66334489    -0.28400
N1514       N  0.59900833  0.79601831  0.64347187     0.15800
C1515       C  0.59526544  0.82713430  0.63228808    -0.28400
C1516       C  0.58681787  0.84928578  0.72521847    -0.28700
N1517       N  0.61427082  0.86749414  0.71969146     0.16300
H1518       H  0.58491647  0.82993554  0.74181101     0.18900
C1519       C  0.60835506  0.88579348  0.69489444    -0.28700
H1520       H  0.62704965  0.89988152  0.68317283     0.18900
H1521       H  0.61419345  0.84040856  0.62009596     0.18900
H1522       H  0.96997356  0.84076273  0.69318246     0.19000
H1523       H  0.57489635  0.77031205  0.67918029     0.18900
O1524       O  0.75662156  0.79558969  0.82485002    -0.55000
C1525       C  0.67565977  0.83519371  0.77707561     0.77600
O1526       O  0.65133363  0.81310842  0.85871012    -0.56100
C1527       C  0.76434004  0.78950299  0.85148207     0.77600
C1528       C  0.69943954  0.89396578  0.86493616     0.80000
Cd1529     Cd  0.70484667  0.82879101  0.83662387     1.37500
O1530       O  0.67525273  0.80886391  0.79236804    -0.50200
O1531       O  0.72624475  0.88466703  0.85291237    -0.53800
C1532       C  0.65835184  0.78233817  0.86079285     0.80000
O1533       O  0.67614698  0.87293371  0.86487602    -0.56200
O1534       O  0.69388879  0.85849011  0.78679494    -0.54600
O1535       O  0.74807493  0.80548487  0.87081923    -0.54600
O1536       O  0.68757558  0.77406928  0.85485951    -0.53800
C1537       C  0.64424890  0.86637710  0.73722706    -0.13600
C1538       C  0.65351936  0.83774753  0.75091044    -0.28800
H1539       H  0.65746973  0.88950726  0.74152230     0.15400
H1540       H  0.64039337  0.81490869  0.74535433     0.16000
C1541       C  0.60214397  0.76224420  0.85802007    -0.13600
C1542       C  0.63337966  0.75642917  0.86593212    -0.28800
H1543       H  0.59427128  0.78804434  0.85510261     0.15400
H1544       H  0.64226722  0.73087030  0.86738693     0.16000
C1545       C  0.52472526  0.80801304  0.71198498    -0.15700
C1546       C  0.52017500  0.78438938  0.72758504     0.08400
C1547       C  0.52272432  0.75537423  0.74438815     0.10200
C1548       C  0.53036088  0.73117567  0.75818577    -0.16500
C1549       C  0.66832011  0.66598738  0.71137816    -0.13600
C1550       C  0.63531082  0.66146397  0.71020789    -0.28800
H1551       H  0.68064699  0.66698827  0.73254980     0.15400
H1552       H  0.62366884  0.66188562  0.68867528     0.16000
C1553       C  0.64703496  0.77294534  0.61836606    -0.13600
C1554       C  0.62823336  0.77617080  0.64256280    -0.28800
H1555       H  0.64017567  0.78465377  0.59769235     0.15400
H1556       H  0.63390752  0.76128106  0.66197839     0.16000
C1557       C  0.77657231  0.62113332  0.10702570    -0.13600
C1558       C  0.74377083  0.62157043  0.11010586    -0.28800
H1559       H  0.79051565  0.64436265  0.10764003     0.15400
H1560       H  0.73016609  0.59814583  0.11051480     0.16000
C1561       C  0.69564916  0.92738435  0.87877393    -0.13600
C1562       C  0.66597754  0.94248346  0.88154883    -0.28800
H1563       H  0.71772876  0.93999918  0.88638776     0.15400
H1564       H  0.64446943  0.93103016  0.87151959     0.16000
C1565       C  0.65373228  0.64630132  0.98966140    -0.13600
C1566       C  0.68154249  0.65754520  0.00265952    -0.28800
H1567       H  0.63037197  0.65847882  0.99427565     0.15400
H1568       H  0.70469389  0.64563537  0.99671413     0.16000
C1569       C  0.62066201  0.57262281  0.88591471    -0.15700
C1570       C  0.60645114  0.58736132  0.86660512     0.08400
C1571       C  0.59264417  0.60740287  0.84423886     0.10200
C1572       C  0.58174506  0.62689129  0.82652326    -0.16500
C1573       C  0.70832193  0.52129753  0.96963200    -0.15700
C1574       C  0.73008813  0.51768824  0.98704283     0.08400
C1575       C  0.75728297  0.52056007  0.00565213     0.10200
C1576       C  0.78134737  0.52708077  0.01971715    -0.16500
C1577       C  0.94090236  0.67201027  0.83616285    -0.13600
C1578       C  0.91237290  0.68352760  0.82492574    -0.28800
H1579       H  0.94205543  0.66439693  0.85912585     0.15400
H1580       H  0.91081089  0.68808330  0.80136614     0.16000
C1581       C  0.85159847  0.63760479  0.97553649    -0.13600
C1582       C  0.82458078  0.65173921  0.96326869    -0.28800
H1583       H  0.87595296  0.64503685  0.96800627     0.15400
H1584       H  0.80052844  0.64481730  0.97188710     0.16000
C1585       C  0.75211777  0.61736148  0.85702537    -0.13600
C1586       C  0.75679638  0.58859055  0.87168366    -0.28800
H1587       H  0.72767188  0.62455350  0.84990141     0.15400
H1588       H  0.78128451  0.58290912  0.87996133     0.16000
C1589       C  0.81829186  0.93437449  0.08844119    -0.13600
C1590       C  0.84821476  0.94734881  0.08181239    -0.28800
H1591       H  0.79620764  0.94877671  0.08400109     0.15400
H1592       H  0.87038849  0.93427415  0.08853340     0.16000
C1593       C  0.85963834  0.84477568  0.21224208    -0.13600
C1594       C  0.87094165  0.87352686  0.22445461    -0.28800
H1595       H  0.87177187  0.82156267  0.21825470     0.15400
H1596       H  0.85879075  0.89711225  0.21977727     0.16000
C1597       C  0.57220198  0.67186779  0.12807769    -0.13600
C1598       C  0.59779738  0.68989459  0.13849439    -0.28800
H1599       H  0.57186173  0.66450016  0.10499032     0.15400
H1600       H  0.59974011  0.69469541  0.16195955     0.16000
C1601       C  0.89576816  0.56649672  0.07931068    -0.15700
C1602       C  0.91492137  0.57933467  0.09619516     0.08400
C1603       C  0.93216491  0.59899047  0.11700279     0.10200
C1604       C  0.94335561  0.62017029  0.13314122    -0.16500
C1605       C  0.88568914  0.73839075  0.10235761    -0.13600
C1606       C  0.88499146  0.77093727  0.09528746    -0.28800
H1607       H  0.86288225  0.72512772  0.10717398     0.15400
H1608       H  0.90777671  0.78363620  0.08941277     0.16000
C1609       C  0.97975554  0.74126693  0.18686023    -0.15700
C1610       C  0.98706546  0.76548796  0.20103781     0.08400
C1611       C  0.99215322  0.79226230  0.22043525     0.10200
C1612       C  0.99116500  0.81414406  0.23853199    -0.16500
C1613       C  0.86044054  0.69600033  0.24899146    -0.13600
C1614       C  0.87609988  0.66874257  0.23804314    -0.28800
H1615       H  0.86375432  0.71980503  0.23783675     0.15400
H1616       H  0.87210830  0.64441805  0.24808614     0.16000
C1617       C  0.89956258  0.77815079  0.35434424    -0.13600
C1618       C  0.92883615  0.77201844  0.34153669    -0.28800
H1619       H  0.89191260  0.80367792  0.35884959     0.15400
H1620       H  0.93514188  0.74641368  0.33560061     0.16000
C1621       C  0.59195333  0.81899690  0.34567990    -0.13600
C1622       C  0.57545714  0.84830275  0.34360513    -0.28800
H1623       H  0.58228538  0.79666770  0.33514472     0.15400
H1624       H  0.58404717  0.86995212  0.35593007     0.16000
C1625       C  0.85661740  0.58696861  0.37920031    -0.13600
C1626       C  0.84390550  0.61555709  0.39045476    -0.28800
H1627       H  0.86162867  0.58505782  0.35569186     0.15400
H1628       H  0.84191445  0.61849241  0.41419841     0.16000
C1629       C  0.90723009  0.95286390  0.38573563    -0.15700
C1630       C  0.92519337  0.94154903  0.36697172     0.08400
C1631       C  0.94142231  0.92553781  0.34325021     0.10200
C1632       C  0.95227506  0.90908451  0.32311545    -0.16500
C1633       C  0.78619932  0.88990288  0.37782059    -0.13600
C1634       C  0.75398367  0.89199036  0.37219148    -0.28800
H1635       H  0.79808622  0.86576925  0.38072850     0.15400
H1636       H  0.74291570  0.91623157  0.36787390     0.16000
C1637       C  0.68216803  0.57927966  0.58981583    -0.13600
C1638       C  0.69510004  0.60725725  0.57786079    -0.28800
H1639       H  0.67862858  0.57752934  0.61353723     0.15400
H1640       H  0.69544791  0.61013867  0.55405967     0.16000
C1641       C  0.66630623  0.84720922  0.50492542    -0.13600
C1642       C  0.67319846  0.82145328  0.48638693    -0.28800
H1643       H  0.66522314  0.84059962  0.52818916     0.15400
H1644       H  0.67705302  0.79744716  0.49708077     0.16000
C1645       C  0.57282658  0.90232644  0.63192264    -0.15700
C1646       C  0.58190151  0.91909681  0.61140594     0.08400
C1647       C  0.59489469  0.93471991  0.58608788     0.10200
C1648       C  0.61105097  0.94457151  0.56554035    -0.16500
C1649       C  0.71904258  0.97290854  0.49322111    -0.15700
C1650       C  0.74368004  0.98206712  0.48102441     0.08400
C1651       C  0.77357478  0.99084522  0.46768235     0.10200
C1652       C  0.79945781  0.99226675  0.45497259    -0.16500
C1653       C  0.92248672  0.84777030  0.64906697    -0.13600
C1654       C  0.94978804  0.86183024  0.63743827    -0.28800
H1655       H  0.91903372  0.84741590  0.67281403     0.15400
H1656       H  0.95181845  0.86491503  0.61368198     0.16000
C1657       C  0.85967865  0.88681103  0.52030038    -0.13600
C1658       C  0.86830355  0.88264475  0.49170435    -0.28800
H1659       H  0.85510005  0.91228375  0.52771724     0.15400
H1660       H  0.87529206  0.85817883  0.48327273     0.16000
C1661       C  0.75274486  0.88425897  0.60260485    -0.13600
C1662       C  0.72909900  0.88188561  0.58230094    -0.28800
H1663       H  0.75489455  0.90696539  0.61573587     0.15400
H1664       H  0.72722496  0.85971977  0.56842363     0.16000
loop_ 
_geom_bond_atom_site_label_1 
_geom_bond_atom_site_label_2 
_geom_bond_distance 
_geom_bond_site_symmetry_2 
_ccdc_geom_bond_type 
O1            C4   1.270       .  A
O1           Cd6   2.534       .  S
C2           O11   1.264       .  A
C2            O7   1.268       .  A
C2          C409   1.488       .  S
O3            C9   1.263       .  A
O3           Cd6   2.456       .  S
C4           O12   1.263       .  A
C4          C218   1.488       .  S
C5           O10   1.264       .  A
C5            O8   1.268       .  A
C5          C405   1.475       .  S
Cd6          O13   2.460       .  S
Cd6          O12   2.507       .  S
Cd6          O11   2.469       .  S
Cd6           O7   2.543       .  S
Cd6          O10   2.455       .  S
Cd6           O8   2.501       .  S
C9           O13   1.260       .  A
C9          C413   1.467       .  S
C14          C16   1.550       .  S
C14          C18   1.549       .  S
C14          C17   1.526       .  S
C14         C400   1.465       .  S
C15          C21   1.526       .  S
C15          C20   1.527       .  S
C15         C435   1.528       .  S
C15         C401   1.456       .  S
C16         C440   1.392       .  A
C16         C435   1.413       .  A
C17          C28   1.376       .  A
C17          C20   1.380       .  A
C18          C32   1.399       .  A
C18          C21   1.399       .  A
C19         C431   1.523   1_545  S
C19          C22   1.374       .  A
C19         C432   1.411       .  A
C20          C26   1.371       .  A
C21          C29   1.377       .  A
C22          N23   1.348       .  A
C22          H35   1.083       .  S
N23          C24   1.357       .  A
N23         C389   1.443       .  S
C24         C432   1.394       .  A
C24          H25   1.083       .  S
C26          N27   1.356       .  A
C26          H36   1.083       .  S
N27          C28   1.362       .  A
N27         C414   1.436       .  S
C28          H34   1.081       .  S
C29          N30   1.352       .  A
C29          H31   1.083       .  S
N30          C32   1.361       .  A
N30         C393   1.449       .  S
C32          H33   1.082       .  S
C37          C39   1.552       .  S
C37          C41   1.548       .  S
C37          C40   1.530       .  S
C37         C381   1.467       .  S
C38          C44   1.522       .  S
C38          C43   1.530       .  S
C38         C458   1.527       .  S
C38         C404   1.458       .  S
C39         C463   1.397       .  A
C39         C458   1.414       .  A
C40          C51   1.379       .  A
C40          C43   1.394       .  A
C41          C55   1.393       .  A
C41          C44   1.382       .  A
C42         C454   1.522   1_545  S
C42          C45   1.376       .  A
C42         C455   1.403       .  A
C43          C49   1.371       .  A
C44          C52   1.375       .  A
C45          N46   1.349       .  A
C45          H58   1.082       .  S
N46          C47   1.361       .  A
N46         C377   1.451       .  S
C47         C455   1.399       .  A
C47          H48   1.083       .  S
C49          N50   1.356       .  A
C49          H59   1.083       .  S
N50          C51   1.352       .  A
N50         C385   1.430       .  S
C51          H57   1.083       .  S
C52          N53   1.359       .  A
C52          H54   1.082       .  S
N53          C55   1.366       .  A
N53         C410   1.451       .  S
C55          H56   1.082       .  S
O60          C63   1.267       .  A
O60         Cd65   2.561       .  S
C61          O70   1.266       .  A
C61          O66   1.270       .  A
C61          C76   1.493       .  S
O62          C68   1.263       .  A
O62         Cd65   2.447       .  S
C63          O71   1.261       .  A
C63         C394   1.487       .  S
C64          O69   1.261       .  A
C64          O67   1.263       .  A
C64         C386   1.463       .  S
Cd65         O72   2.499       .  S
Cd65         O71   2.463       .  S
Cd65         O70   2.525       .  S
Cd65         O66   2.534       .  S
Cd65         O69   2.456       .  S
Cd65         O67   2.441       .  S
C68          O72   1.271       .  A
C68         C373   1.478       .  S
O73          C76   1.270       .  A
O73         Cd78   2.550       .  S
C74          O83   1.267       .  A
C74          O79   1.271       .  A
C74         C365   1.498       .  S
O75          C81   1.264       .  A
O75         Cd78   2.463       .  S
C76          O84   1.263       .  A
C77          O82   1.265       .  A
C77          O80   1.263       .  A
C77         C378   1.482       .  S
Cd78         O85   2.452       .  S
Cd78         O84   2.514       .  S
Cd78         O83   2.478       .  S
Cd78         O79   2.535       .  S
Cd78         O82   2.484       .  S
Cd78         O80   2.518       .  S
C81          O85   1.260       .  A
C81         C369   1.466       .  S
C86          C88   1.552       .  S
C86          C90   1.560       .  S
C86          C89   1.525       .  S
C86         C356   1.467       .  S
C87          C91   1.513       .  S
C87          C93   1.521       .  S
C87          C92   1.534       .  S
C87         C361   1.456       .  S
C88          C91   1.409       .  A
C88         C928   1.399       .  A
C89         C100   1.378       .  A
C89          C92   1.399       .  A
C90         C104   1.409       .  A
C90          C93   1.402       .  A
C91         C926   1.373       .  A
C92          C98   1.373       .  A
C93         C101   1.373       .  A
C94         C923   1.374       .  A
C94          N95   1.345       .  A
C94         H107   1.083       .  S
N95          C96   1.356       .  A
N95         C349   1.438       .  S
C96         C920   1.394   1_455  A
C96          H97   1.082       .  S
C98          N99   1.349       .  A
C98         H108   1.083       .  S
N99         C100   1.351       .  A
N99         C357   1.426       .  S
C100        H106   1.083       .  S
C101        N102   1.345       .  A
C101        H103   1.084       .  S
N102        C104   1.364       .  A
N102        C366   1.448       .  S
C104        H105   1.082       .  S
C109        C111   1.554       .  S
C109        C113   1.548       .  S
C109        C112   1.534       .  S
C109        C384   1.468       .  S
C110        C116   1.524       .  S
C110        C115   1.530       .  S
C110        C946   1.519       .  S
C110        C364   1.454       .  S
C111        C951   1.397       .  A
C111        C946   1.412       .  A
C112        C123   1.383       .  A
C112        C115   1.398       .  A
C113        C127   1.394       .  A
C113        C116   1.382       .  A
C114        C942   1.523   1_455  S
C114        C117   1.378       .  A
C114        C943   1.411   1_455  A
C115        C121   1.373       .  A
C116        C124   1.375       .  A
C117        N118   1.347       .  A
C117        H130   1.083       .  S
N118        C119   1.355       .  A
N118        C374   1.442       .  S
C119        C943   1.394   1_455  A
C119        H120   1.083       .  S
C121        N122   1.349       .  A
C121        H131   1.083       .  S
N122        C123   1.357       .  A
N122        C370   1.432       .  S
C123        H129   1.083       .  S
C124        N125   1.361       .  A
C124        H126   1.083       .  S
N125        C127   1.367       .  A
N125        C346   1.456       .  S
C127        H128   1.082       .  S
O132        C135   1.275       .  A
O132       Cd137   2.552       .  S
C133        O142   1.260       .  A
C133        O138   1.278       .  A
C133        C345   1.491       .  S
O134        C140   1.270       .  A
O134       Cd137   2.471       .  S
C135        O143   1.266       .  A
C135        C207   1.493       .  S
C136        O141   1.266       .  A
C136        O139   1.270       .  A
C136        C341   1.476       .  S
Cd137       O144   2.354       .  S
Cd137       O143   2.488       .  S
Cd137       O142   2.407       .  S
Cd137       O138   2.604       .  S
Cd137       O141   2.455       .  S
Cd137       O139   2.478       .  S
C140        O144   1.266       .  A
C140        C358   1.459       .  S
O145        C148   1.269       .  A
O145       Cd150   2.549       .  S
C146        O155   1.269       .  A
C146        O151   1.263       .  A
C146        C334   1.491       .  S
O147        C153   1.262       .  A
O147       Cd150   2.432       .  S
C148        O156   1.264       .  A
C148        C279   1.497       .  S
C149        O154   1.264       .  A
C149        O152   1.270       .  A
C149        C330   1.481       .  S
Cd150       O157   2.470       .  S
Cd150       O156   2.540       .  S
Cd150       O155   2.564       .  S
Cd150       O151   2.465       .  S
Cd150       O154   2.453       .  S
Cd150       O152   2.532       .  S
C153        O157   1.261       .  A
C153        C337   1.466       .  S
C158        C160   1.554       .  S
C158        C162   1.547       .  S
C158        C161   1.533       .  S
C158        C321   1.467       .  S
C159        C163   1.524       .  S
C159        C165   1.518       .  S
C159        C164   1.530       .  S
C159        C325   1.454       .  S
C160        C168   1.397   1_545  A
C160        C163   1.417       .  A
C161        C172   1.378       .  A
C161        C164   1.395       .  A
C162        C176   1.396       .  A
C162        C165   1.380       .  A
C163        C582   1.376   1_545  A
C164        C170   1.372       .  A
C165        C173   1.375       .  A
C166        C579   1.377       .  A
C166        N167   1.348       .  A
C166        H179   1.082       .  S
N167        C584   1.359       .  A
N167        C314   1.448       .  S
C168        N583   1.357       .  A
C168        H169   1.083       .  S
C170        N171   1.353       .  A
C170        H180   1.083       .  S
N171        C172   1.359       .  A
N171        C338   1.435       .  S
C172        H178   1.081       .  S
C173        N174   1.356       .  A
C173        H175   1.082       .  S
N174        C176   1.366       .  A
N174        C317   1.452       .  S
C176        H177   1.082       .  S
C181        C183   1.549       .  S
C181        C185   1.547       .  S
C181        C184   1.534       .  S
C181        C353   1.465       .  S
C182        C186   1.525       .  S
C182        C188   1.523       .  S
C182        C187   1.532       .  S
C182        C328   1.454       .  S
C183        C191   1.395   1_545  A
C183        C186   1.412       .  A
C184        C195   1.379       .  A
C184        C187   1.401       .  A
C185        C199   1.393       .  A
C185        C188   1.379       .  A
C186        C605   1.377   1_545  A
C187        C193   1.375       .  A
C188        C196   1.376   1_554  A
C189        C602   1.377       .  A
C189        N190   1.347       .  A
C189        H202   1.083       .  S
N190        C607   1.357       .  A
N190        C342   1.442       .  S
C191        N606   1.357       .  A
C191        H192   1.083       .  S
C193        N194   1.356       .  A
C193        H203   1.083       .  S
N194        C195   1.349       .  A
N194        C309   1.432       .  S
C195        H201   1.083       .  S
C196        N197   1.360       .  A
C196        H198   1.082       .  S
N197        C199   1.367   1_556  A
N197        C333   1.455       .  S
C199        H200   1.082       .  S
O204        C207   1.270       .  A
O204       Cd209   2.524       .  S
C205        O214   1.267       .  A
C205        O210   1.262       .  A
C205        C318   1.489   1_554  S
O206        C212   1.261       .  A
O206       Cd209   2.446       .  S
C207        O215   1.266       .  A
C208        O213   1.263       .  A
C208        O211   1.271       .  A
C208        C350   1.473       .  S
Cd209       O216   2.441       .  S
Cd209       O215   2.538       .  S
Cd209       O214   2.565       .  S
Cd209       O210   2.468       .  S
Cd209       O213   2.429       .  S
Cd209       O211   2.494       .  S
C212        O216   1.264       .  A
C212        C310   1.463       .  S
O217        C220   1.275       .  A
O217       Cd222   2.556       .  S
C218        O227   1.263       .  A
C218        O223   1.269       .  A
O219        C225   1.264       .  A
O219       Cd222   2.440       .  S
C220        O228   1.264       .  A
C220        C301   1.496       .  S
C221        O226   1.265       .  A
C221        O224   1.262       .  A
C221        C305   1.462       .  S
Cd222       O229   2.490       .  S
Cd222       O228   2.428       .  S
Cd222       O227   2.508       .  S
Cd222       O223   2.536       .  S
Cd222       O226   2.478       .  S
Cd222       O224   2.402       .  S
C225        O229   1.270       .  A
C225        C390   1.471       .  S
C230        C232   1.560       .  S
C230        C234   1.551       .  S
C230        C233   1.529       .  S
C230        C324   1.466       .  S
C231        C235   1.522       .  S
C231        C237   1.516       .  S
C231        C236   1.525       .  S
C231        C300   1.452       .  S
C232        C240   1.402   1_455  A
C232        C235   1.415       .  A
C233        C244   1.377       .  A
C233        C236   1.383       .  A
C234        C248   1.397       .  A
C234        C237   1.382       .  A
C235       C1070   1.370   1_455  A
C236        C242   1.369       .  A
C237        C245   1.370       .  A
C238       C1067   1.374       .  A
C238        N239   1.347       .  A
C238        H251   1.083       .  S
N239       C1072   1.361       .  A
N239        C329   1.450       .  S
C240       N1071   1.362       .  A
C240       H1073   1.082       .  S
H241       C1072   1.083       .  S
C242        N243   1.355       .  A
C242        H252   1.083       .  S
N243        C244   1.362       .  A
N243        C293   1.434       .  S
C244        H250   1.082       .  S
C245        N246   1.354       .  A
C245        H247   1.083       .  S
N246        C248   1.367       .  A
N246        C302   1.443       .  S
C248        H249   1.082       .  S
C253        C255   1.551       .  S
C253        C257   1.554       .  S
C253        C256   1.528       .  S
C253        C397   1.466       .  S
C254        C258   1.524       .  S
C254        C260   1.525       .  S
C254        C259   1.533       .  S
C254        C297   1.452       .  S
C255        C263   1.400   1_455  A
C255        C258   1.405       .  A
C256        C267   1.379       .  A
C256        C259   1.401       .  A
C257        C271   1.402       .  A
C257        C260   1.401       .  A
C258       C1093   1.382   1_455  A
C259        C265   1.376       .  A
C260        C268   1.383       .  A
C261       C1090   1.373       .  A
C261        N262   1.348       .  A
C261        H274   1.083       .  S
N262       C1095   1.358       .  A
N262        C406   1.444       .  S
C263       N1094   1.360       .  A
C263       H1096   1.083       .  S
H264       C1095   1.082       .  S
C265        N266   1.349       .  A
C265        H275   1.083       .  S
N266        C267   1.351       .  A
N266        C306   1.428       .  S
C267        H273   1.083       .  S
C268        N269   1.351       .  A
C268        H270   1.083       .  S
N269        C271   1.360       .  A
N269        C289   1.453       .  S
C271        H272   1.082       .  S
O276        C279   1.272       .  A
O276       Cd281   2.550       .  S
C277        O286   1.262       .  A
C277        O282   1.266       .  A
C277        C290   1.493       .  S
O278        C284   1.265       .  A
O278       Cd281   2.480       .  S
C279        O287   1.266       .  A
C280        O285   1.264       .  A
C280        O283   1.270       .  A
C280        C313   1.481       .  S
Cd281       O288   2.443       .  S
Cd281       O287   2.516       .  S
Cd281       O286   2.491       .  S
Cd281       O282   2.565       .  S
Cd281       O285   2.482       .  S
Cd281       O283   2.492       .  S
C284        O288   1.259       .  A
C284        C294   1.467       .  S
C289        C290   1.354       .  D
C289        H291   1.086       .  S
C290        H292   1.086       .  S
C293        C294   1.339       .  D
C293        H295   1.088       .  S
C294        H296   1.086       .  S
C297        C298   1.193       .  T
C298        C299   1.391       .  S
C299        C300   1.194       .  T
C301        C302   1.353       .  D
C301        H303   1.086       .  S
C302        H304   1.087       .  S
C305        C306   1.340       .  D
C305        H307   1.086       .  S
C306        H308   1.089       .  S
C309        C310   1.338       .  D
C309        H311   1.088       .  S
C310        H312   1.086       .  S
C313        C314   1.355       .  D
C313        H315   1.085       .  S
C314        H316   1.086       .  S
C317        C318   1.353       .  D
C317        H319   1.086       .  S
C318        H320   1.086       .  S
C321        C322   1.204       .  T
C322        C323   1.410       .  S
C323        C324   1.204       .  T
C325        C326   1.195       .  T
C326        C327   1.394       .  S
C327        C328   1.195   1_556  T
C329        C330   1.353       .  D
C329        H331   1.086       .  S
C330        H332   1.085       .  S
C333        C334   1.354       .  D
C333        H335   1.086       .  S
C334        H336   1.086       .  S
C337        C338   1.343       .  D
C337        H339   1.084       .  S
C338        H340   1.088       .  S
C341        C342   1.351       .  D
C341        H343   1.086       .  S
C342        H344   1.086       .  S
C345        C346   1.350       .  D
C345        H347   1.086       .  S
C346        H348   1.086       .  S
C349        C350   1.351       .  D
C349        H351   1.086       .  S
C350        H352   1.086       .  S
C353        C354   1.204       .  T
C354        C355   1.409       .  S
C355        C356   1.204       .  T
C357        C358   1.341       .  D
C357        H359   1.090       .  S
C358        H360   1.085       .  S
C361        C362   1.195       .  T
C362        C363   1.393       .  S
C363        C364   1.195       .  T
C365        C366   1.349       .  D
C365        H367   1.086       .  S
C366        H368   1.088       .  S
C369        C370   1.339       .  D
C369        H371   1.086       .  S
C370        H372   1.087       .  S
C373        C374   1.352       .  D
C373        H375   1.086       .  S
C374        H376   1.087       .  S
C377        C378   1.354       .  D
C377        H379   1.086       .  S
C378        H380   1.084       .  S
C381        C382   1.205       .  T
C382        C383   1.410       .  S
C383        C384   1.205       .  T
C385        C386   1.338       .  D
C385        H387   1.087       .  S
C386        H388   1.087       .  S
C389        C390   1.347       .  D
C389        H391   1.087       .  S
C390        H392   1.086       .  S
C393        C394   1.351       .  D
C393        H395   1.086       .  S
C394        H396   1.087       .  S
C397        C398   1.203       .  T
C398        C399   1.408       .  S
C399        C400   1.203       .  T
C401        C402   1.197       .  T
C402        C403   1.398       .  S
C403        C404   1.198       .  T
C405        C406   1.349       .  D
C405        H407   1.086       .  S
C406        H408   1.087       .  S
C409        C410   1.353       .  D
C409        H411   1.086       .  S
C410        H412   1.086       .  S
C413        C414   1.342       .  D
C413        H415   1.084       .  S
C414        H416   1.088       .  S
O417        C420   1.270       .  A
O417       Cd422   2.546       .  S
C418        O427   1.264       .  A
C418        O423   1.269       .  A
C418        C825   1.491       .  S
O419        C425   1.262       .  A
O419       Cd422   2.451       .  S
C420        O428   1.264       .  A
C420        C634   1.496       .  S
C421        O426   1.265       .  A
C421        O424   1.267       .  A
C421        C821   1.479       .  S
Cd422       O429   2.467       .  S
Cd422       O428   2.533       .  S
Cd422       O427   2.469       .  S
Cd422       O423   2.556       .  S
Cd422       O426   2.459       .  S
Cd422       O424   2.512       .  S
C425        O429   1.260       .  A
C425        C829   1.468       .  S
C430        C432   1.551   1_565  S
C430        C434   1.548       .  S
C430        C433   1.523       .  S
C430        C816   1.460       .  S
C431        C437   1.525       .  S
C431        C436   1.529       .  S
C431        C817   1.454   1_565  S
C433        C444   1.376       .  A
C433        C436   1.379       .  A
C434        C448   1.397       .  A
C434        C437   1.395       .  A
C435        C438   1.381       .  A
C436        C442   1.371       .  A
C437        C445   1.374       .  A
C438        N439   1.351       .  A
C438        H451   1.083       .  S
N439        C440   1.356       .  A
N439        C805   1.446       .  S
C440        H441   1.083       .  S
C442        N443   1.357       .  A
C442        H452   1.083       .  S
N443        C444   1.361       .  A
N443        C830   1.435       .  S
C444        H450   1.082       .  S
C445        N446   1.357       .  A
C445        H447   1.083       .  S
N446        C448   1.362       .  A
N446        C809   1.453       .  S
C448        H449   1.082       .  S
C453        C455   1.551   1_565  S
C453        C457   1.555       .  S
C453        C456   1.529       .  S
C453        C797   1.466       .  S
C454        C460   1.524       .  S
C454        C459   1.530       .  S
C454        C820   1.455   1_565  S
C456        C467   1.382       .  A
C456        C459   1.400       .  A
C457        C471   1.399       .  A
C457        C460   1.401       .  A
C458        C461   1.375       .  A
C459        C465   1.375       .  A
C460        C468   1.381       .  A
C461        N462   1.348       .  A
C461        H474   1.083       .  S
N462        C463   1.359       .  A
N462        C793   1.446       .  S
C463        H464   1.083       .  S
C465        N466   1.348       .  A
C465        H475   1.083       .  S
N466        C467   1.350       .  A
N466        C801   1.425       .  S
C467        H473   1.083       .  S
C468        N469   1.353       .  A
C468        H470   1.083       .  S
N469        C471   1.361       .  A
N469        C826   1.453       .  S
C471        H472   1.082       .  S
O476        C479   1.278       .  A
O476       Cd481   2.598       .  S
C477        O486   1.267       .  A
C477        O482   1.275       .  A
C477        C492   1.491       .  S
O478        C484   1.266       .  A
O478       Cd481   2.445       .  S
C479        O487   1.260       .  A
C479        C810   1.486       .  S
C480        O485   1.270       .  A
C480        O483   1.266       .  A
C480        C802   1.468       .  S
Cd481       O488   2.484       .  S
Cd481       O487   2.386       .  S
Cd481       O486   2.493       .  S
Cd481       O482   2.528       .  S
Cd481       O485   2.471       .  S
Cd481       O483   2.381       .  S
C484        O488   1.271       .  A
C484        C789   1.476       .  S
O489        C492   1.270       .  A
O489       Cd494   2.543       .  S
C490        O499   1.262       .  A
C490        O495   1.271       .  A
C490        C781   1.491       .  S
O491        C497   1.265       .  A
O491       Cd494   2.466       .  S
C492        O500   1.262       .  A
C493        O498   1.264       .  A
C493        O496   1.266       .  A
C493        C794   1.477       .  S
Cd494       O501   2.437       .  S
Cd494       O500   2.514       .  S
Cd494       O499   2.452       .  S
Cd494       O495   2.581       .  S
Cd494       O498   2.465       .  S
Cd494       O496   2.505       .  S
C497        O501   1.260       .  A
C497        C785   1.464       .  S
C502        C504   1.550       .  S
C502        C506   1.558       .  S
C502        C505   1.526       .  S
C502        C772   1.470       .  S
C503        C507   1.519       .  S
C503        C509   1.521       .  S
C503        C508   1.532       .  S
C503        C777   1.460       .  S
C504       C1344   1.398       .  A
C504        C507   1.408       .  A
C505        C516   1.378       .  A
C505        C508   1.401       .  A
C506        C520   1.404       .  A
C506        C509   1.400       .  A
C507       C1342   1.374       .  A
C508        C514   1.373       .  A
C509        C517   1.376       .  A
C510       C1339   1.373   1_455  A
C510        N511   1.347       .  A
C510        H523   1.082       .  S
N511        C512   1.359       .  A
N511        C765   1.444       .  S
C512       C1336   1.396   1_455  A
C512        H513   1.083       .  S
C514        N515   1.348       .  A
C514        H524   1.083       .  S
N515        C516   1.349       .  A
N515        C773   1.423       .  S
C516        H522   1.083       .  S
C517        N518   1.352       .  A
C517        H519   1.082       .  S
N518        C520   1.364       .  A
N518        C782   1.456       .  S
C520        H521   1.082       .  S
C525        C527   1.551       .  S
C525        C529   1.549       .  S
C525        C528   1.527       .  S
C525        C800   1.466       .  S
C526       C1362   1.525       .  S
C526        C532   1.532       .  S
C526        C531   1.525       .  S
C526        C780   1.458       .  S
C527       C1367   1.393       .  A
C527       C1362   1.410       .  A
C528        C539   1.376       .  A
C528        C531   1.382       .  A
C529        C543   1.399       .  A
C529        C532   1.397       .  A
C530       C1358   1.525   1_455  S
C530       C1359   1.416       .  A
C530        C533   1.378       .  A
C531        C537   1.370       .  A
C532        C540   1.380       .  A
C533        N534   1.347       .  A
C533        H546   1.083       .  S
N534        C535   1.355       .  A
N534        C790   1.440       .  S
C535       C1359   1.393       .  A
C535        H536   1.082       .  S
C537        N538   1.356       .  A
C537        H547   1.083       .  S
N538        C539   1.362       .  A
N538        C786   1.434       .  S
C539        H545   1.082       .  S
C540        N541   1.358       .  A
C540        H542   1.083       .  S
N541        C543   1.362       .  A
N541        C762   1.458       .  S
C543        H544   1.082       .  S
O548        C551   1.275       .  A
O548       Cd553   2.549       .  S
C549        O558   1.260       .  A
C549        O554   1.278       .  A
C549        C761   1.492       .  S
O550        C556   1.270       .  A
O550       Cd553   2.466       .  S
C551        O559   1.267       .  A
C551        C623   1.494       .  S
C552        O557   1.266       .  A
C552        O555   1.270       .  A
C552        C757   1.477       .  S
Cd553       O560   2.358       .  S
Cd553       O559   2.488       .  S
Cd553       O558   2.401       .  S
Cd553       O554   2.617       .  S
Cd553       O557   2.455       .  S
Cd553       O555   2.485       .  S
C556        O560   1.266       .  A
C556        C774   1.460       .  S
O561        C564   1.269       .  A
O561       Cd566   2.539       .  S
C562        O571   1.268       .  A
C562        O567   1.264       .  A
C562        C750   1.482       .  S
O563        C569   1.259       .  A
O563       Cd566   2.458       .  S
C564        O572   1.263       .  A
C564        C695   1.488       .  S
C565        O570   1.264       .  A
C565        O568   1.268       .  A
C565        C746   1.471       .  S
Cd566       O573   2.448       .  S
Cd566       O572   2.505       .  S
Cd566       O571   2.524       .  S
Cd566       O567   2.455       .  S
Cd566       O570   2.429       .  S
Cd566       O568   2.499       .  S
C569        O573   1.262       .  A
C569        C753   1.463       .  S
C574        C576   1.554       .  S
C574        C578   1.548       .  S
C574        C577   1.532       .  S
C574        C737   1.469       .  S
C575        C579   1.526       .  S
C575        C581   1.519       .  S
C575        C580   1.531       .  S
C575        C741   1.457       .  S
C576        C584   1.397       .  A
C576        C579   1.415       .  A
C577        C588   1.378       .  A
C577        C580   1.399       .  A
C578        C592   1.395       .  A
C578        C581   1.379       .  A
C580        C586   1.374       .  A
C581        C589   1.374       .  A
C582        N583   1.346       .  A
C582        H595   1.083       .  S
N583        C730   1.443       .  S
C584        H585   1.082       .  S
C586        N587   1.356       .  A
C586        H596   1.083       .  S
N587        C588   1.350       .  A
N587        C754   1.431       .  S
C588        H594   1.083       .  S
C589        N590   1.357       .  A
C589        H591   1.083       .  S
N590        C592   1.367       .  A
N590        C733   1.451       .  S
C592        H593   1.082       .  S
C597        C599   1.550       .  S
C597        C601   1.543       .  S
C597        C600   1.535       .  S
C597        C769   1.468       .  S
C598        C602   1.525       .  S
C598        C604   1.520       .  S
C598        C603   1.532       .  S
C598        C744   1.457       .  S
C599        C607   1.394       .  A
C599        C602   1.413       .  A
C600        C611   1.380       .  A
C600        C603   1.401       .  A
C601        C615   1.392       .  A
C601        C604   1.380       .  A
C603        C609   1.375       .  A
C604        C612   1.372   1_554  A
C605        N606   1.346       .  A
C605        H618   1.083       .  S
N606        C758   1.443       .  S
C607        H608   1.082       .  S
C609        N610   1.356       .  A
C609        H619   1.083       .  S
N610        C611   1.351       .  A
N610        C725   1.433       .  S
C611        H617   1.083       .  S
C612        N613   1.358       .  A
C612        H614   1.083       .  S
N613        C615   1.365   1_556  A
N613        C749   1.447       .  S
C615        H616   1.082       .  S
O620        C623   1.270       .  A
O620       Cd625   2.525       .  S
C621        O630   1.262       .  A
C621        O626   1.266       .  A
C621        C734   1.487   1_554  S
O622        C628   1.261       .  A
O622       Cd625   2.450       .  S
C623        O631   1.267       .  A
C624        O629   1.264       .  A
C624        O627   1.270       .  A
C624        C766   1.476       .  S
Cd625       O632   2.449       .  S
Cd625       O631   2.538       .  S
Cd625       O630   2.472       .  S
Cd625       O626   2.550       .  S
Cd625       O629   2.458       .  S
Cd625       O627   2.486       .  S
C628        O632   1.264       .  A
C628        C726   1.464       .  S
O633        C636   1.277       .  A
O633       Cd638   2.572       .  S
C634        O643   1.263       .  A
C634        O639   1.272       .  A
O635        C641   1.264       .  A
O635       Cd638   2.465       .  S
C636        O644   1.265       .  A
C636        C717   1.504       .  S
C637        O642   1.267       .  A
C637        O640   1.263       .  A
C637        C721   1.461       .  S
Cd638       O645   2.509       .  S
Cd638       O644   2.452       .  S
Cd638       O643   2.516       .  S
Cd638       O639   2.565       .  S
Cd638       O642   2.477       .  S
Cd638       O640   2.388       .  S
C641        O645   1.269       .  A
C641        C806   1.480       .  S
C646        C648   1.556       .  S
C646        C650   1.556       .  S
C646        C649   1.530       .  S
C646        C740   1.469       .  S
C647        C651   1.524       .  S
C647        C653   1.523       .  S
C647        C652   1.526       .  S
C647        C716   1.456       .  S
C648        C656   1.397   1_455  A
C648        C651   1.413       .  A
C649        C660   1.378       .  A
C649        C652   1.386       .  A
C650        C664   1.402       .  A
C650        C653   1.385       .  A
C651       C1486   1.375   1_455  A
C652        C658   1.371       .  A
C653        C661   1.371       .  A
C654       C1483   1.369       .  A
C654        N655   1.346       .  A
C654        H667   1.083       .  S
N655       C1488   1.360       .  A
N655        C745   1.446       .  S
C656       N1487   1.359       .  A
C656       H1489   1.083       .  S
H657       C1488   1.083       .  S
C658        N659   1.354       .  A
C658        H668   1.083       .  S
N659        C660   1.360       .  A
N659        C709   1.433       .  S
C660        H666   1.082       .  S
C661        N662   1.355       .  A
C661        H663   1.083       .  S
N662        C664   1.370       .  A
N662        C718   1.450       .  S
C664        H665   1.082       .  S
C669        C671   1.542       .  S
C669        C673   1.549       .  S
C669        C672   1.526       .  S
C669        C813   1.461       .  S
C670        C674   1.523       .  S
C670        C676   1.523       .  S
C670        C675   1.533       .  S
C670        C713   1.457       .  S
C671        C679   1.393       .  A
C671        C674   1.407       .  A
C672        C683   1.376       .  A
C672        C675   1.398       .  A
C673        C687   1.398       .  A
C673        C676   1.403       .  A
C674       C1509   1.377   1_455  A
C675        C681   1.376       .  A
C676        C684   1.377       .  A
C677       C1506   1.376       .  A
C677        N678   1.349       .  A
C677        H690   1.083       .  S
N678       C1511   1.359       .  A
N678        C822   1.448       .  S
C679       N1510   1.355   1_455  A
C679       H1512   1.083       .  S
H680       C1511   1.082       .  S
C681        N682   1.350       .  A
C681        H691   1.083       .  S
N682        C683   1.351       .  A
N682        C722   1.427       .  S
C683        H689   1.083       .  S
C684        N685   1.351       .  A
C684        H686   1.083       .  S
N685        C687   1.357       .  A
N685        C705   1.447       .  S
C687        H688   1.082       .  S
O692        C695   1.270       .  A
O692       Cd697   2.519       .  S
C693        O702   1.260       .  A
C693        O698   1.267       .  A
C693        C706   1.483       .  S
O694        C700   1.266       .  A
O694       Cd697   2.460       .  S
C695        O703   1.266       .  A
C696        O701   1.264       .  A
C696        O699   1.270       .  A
C696        C729   1.478       .  S
Cd697       O704   2.433       .  S
Cd697       O703   2.505       .  S
Cd697       O702   2.451       .  S
Cd697       O698   2.549       .  S
Cd697       O701   2.466       .  S
Cd697       O699   2.485       .  S
C700        O704   1.261       .  A
C700        C710   1.464       .  S
C705        C706   1.349       .  D
C705        H707   1.086       .  S
C706        H708   1.087       .  S
C709        C710   1.340       .  D
C709        H711   1.088       .  S
C710        H712   1.086       .  S
C713        C714   1.196       .  T
C714        C715   1.396       .  S
C715        C716   1.197       .  T
C717        C718   1.356       .  D
C717        H719   1.085       .  S
C718        H720   1.087       .  S
C721        C722   1.341       .  D
C721        H723   1.086       .  S
C722        H724   1.089       .  S
C725        C726   1.339       .  D
C725        H727   1.087       .  S
C726        H728   1.087       .  S
C729        C730   1.352       .  D
C729        H731   1.086       .  S
C730        H732   1.086       .  S
C733        C734   1.353       .  D
C733        H735   1.086       .  S
C734        H736   1.086       .  S
C737        C738   1.206       .  T
C738        C739   1.413       .  S
C739        C740   1.206       .  T
C741        C742   1.197       .  T
C742        C743   1.397       .  S
C743        C744   1.197   1_556  T
C745        C746   1.350       .  D
C745        H747   1.086       .  S
C746        H748   1.085       .  S
C749        C750   1.350       .  D
C749        H751   1.086       .  S
C750        H752   1.086       .  S
C753        C754   1.338       .  D
C753        H755   1.086       .  S
C754        H756   1.087       .  S
C757        C758   1.352       .  D
C757        H759   1.086       .  S
C758        H760   1.086       .  S
C761        C762   1.351       .  D
C761        H763   1.086       .  S
C762        H764   1.086       .  S
C765        C766   1.353       .  D
C765        H767   1.087       .  S
C766        H768   1.085       .  S
C769        C770   1.205       .  T
C770        C771   1.411       .  S
C771        C772   1.206       .  T
C773        C774   1.340       .  D
C773        H775   1.089       .  S
C774        H776   1.086       .  S
C777        C778   1.198       .  T
C778        C779   1.398       .  S
C779        C780   1.198       .  T
C781        C782   1.355       .  D
C781        H783   1.086       .  S
C782        H784   1.086       .  S
C785        C786   1.340       .  D
C785        H787   1.085       .  S
C786        H788   1.088       .  S
C789        C790   1.350       .  D
C789        H791   1.086       .  S
C790        H792   1.087       .  S
C793        C794   1.351       .  D
C793        H795   1.087       .  S
C794        H796   1.085       .  S
C797        C798   1.204       .  T
C798        C799   1.409       .  S
C799        C800   1.204       .  T
C801        C802   1.341       .  D
C801        H803   1.088       .  S
C802        H804   1.086       .  S
C805        C806   1.348       .  D
C805        H807   1.087       .  S
C806        H808   1.086       .  S
C809        C810   1.348       .  D
C809        H811   1.086       .  S
C810        H812   1.087       .  S
C813        C814   1.201       .  T
C814        C815   1.403       .  S
C815        C816   1.200       .  T
C817        C818   1.195       .  T
C818        C819   1.395       .  S
C819        C820   1.195       .  T
C821        C822   1.351       .  D
C821        H823   1.085       .  S
C822        H824   1.086       .  S
C825        C826   1.354       .  D
C825        H827   1.086       .  S
C826        H828   1.086       .  S
C829        C830   1.342       .  D
C829        H831   1.085       .  S
C830        H832   1.088       .  S
O833        C836   1.270       .  A
O833       Cd838   2.569       .  S
C834        O843   1.264       .  A
C834        O839   1.272       .  A
C834       C1241   1.507       .  S
O835        C841   1.264       .  A
O835       Cd838   2.447       .  S
C836        O844   1.266       .  A
C836       C1050   1.508       .  S
C837        O842   1.265       .  A
C837        O840   1.268       .  A
C837       C1237   1.489       .  S
Cd838       O845   2.450       .  S
Cd838       O844   2.563       .  S
Cd838       O843   2.486       .  S
Cd838       O839   2.574       .  S
Cd838       O842   2.485       .  S
Cd838       O840   2.541       .  S
C841        O845   1.261       .  A
C841       C1245   1.463       .  S
C846        C848   1.550       .  S
C846        C850   1.550       .  S
C846        C849   1.520       .  S
C846       C1232   1.460       .  S
C847       C1267   1.519       .  S
C847        C853   1.524       .  S
C847        C852   1.530       .  S
C847       C1233   1.453       .  S
C848       C1272   1.396       .  A
C848       C1267   1.408       .  A
C849        C860   1.372       .  A
C849        C852   1.381       .  A
C850        C864   1.398       .  A
C850        C853   1.400       .  A
C851       C1263   1.532       .  S
C851       C1264   1.401       .  A
C851        C854   1.388   1_565  A
C852        C858   1.372       .  A
C853        C861   1.374       .  A
C854        N855   1.351       .  A
C854        H867   1.082       .  S
N855        C856   1.355       .  A
N855       C1221   1.448       .  S
C856       C1264   1.392   1_545  A
C856        H857   1.083       .  S
C858        N859   1.357       .  A
C858        H868   1.083       .  S
N859        C860   1.359       .  A
N859       C1246   1.431       .  S
C860        H866   1.082       .  S
C861        N862   1.354       .  A
C861        H863   1.083       .  S
N862        C864   1.360       .  A
N862       C1225   1.451       .  S
C864        H865   1.082       .  S
C869        C871   1.557       .  S
C869        C873   1.563       .  S
C869        C872   1.525       .  S
C869       C1213   1.464       .  S
C870       C1290   1.513       .  S
C870        C876   1.522       .  S
C870        C875   1.536       .  S
C870       C1236   1.453       .  S
C871       C1295   1.402       .  A
C871       C1290   1.404       .  A
C872        C883   1.380       .  A
C872        C875   1.399       .  A
C873        C887   1.413       .  A
C873        C876   1.399       .  A
C874       C1286   1.518   1_545  S
C874       C1287   1.410       .  A
C874        C877   1.376       .  A
C875        C881   1.375       .  A
C876        C884   1.373       .  A
C877        N878   1.349       .  A
C877        H890   1.083       .  S
N878        C879   1.359       .  A
N878       C1209   1.447       .  S
C879       C1287   1.397       .  A
C879        H880   1.083       .  S
C881        N882   1.349       .  A
C881        H891   1.083       .  S
N882        C883   1.351       .  A
N882       C1217   1.428       .  S
C883        H889   1.083       .  S
C884        N885   1.347       .  A
C884        H886   1.084       .  S
N885        C887   1.367       .  A
N885       C1242   1.454       .  S
C887        H888   1.082       .  S
O892        C895   1.278       .  A
O892       Cd897   2.591       .  S
C893        O902   1.267       .  A
C893        O898   1.275       .  A
C893        C908   1.493       .  S
O894        C900   1.267       .  A
O894       Cd897   2.458       .  S
C895        O903   1.260       .  A
C895       C1226   1.483       .  S
C896        O901   1.271       .  A
C896        O899   1.266       .  A
C896       C1218   1.464       .  S
Cd897       O904   2.471       .  S
Cd897       O903   2.379       .  S
Cd897       O902   2.495       .  S
Cd897       O898   2.536       .  S
Cd897       O901   2.477       .  S
Cd897       O899   2.373       .  S
C900        O904   1.270       .  A
C900       C1205   1.474       .  S
O905        C908   1.271       .  A
O905       Cd910   2.535       .  S
C906        O915   1.262       .  A
C906        O911   1.274       .  A
C906       C1197   1.494       .  S
O907        C913   1.264       .  A
O907       Cd910   2.469       .  S
C908        O916   1.265       .  A
C909        O914   1.264       .  A
C909        O912   1.267       .  A
C909       C1210   1.479       .  S
Cd910       O917   2.444       .  S
Cd910       O916   2.521       .  S
Cd910       O915   2.428       .  S
Cd910       O911   2.564       .  S
Cd910       O914   2.464       .  S
Cd910       O912   2.511       .  S
C913        O917   1.261       .  A
C913       C1201   1.464       .  S
C918        C920   1.549       .  S
C918        C922   1.545       .  S
C918        C921   1.536       .  S
C918       C1188   1.465       .  S
C919        C923   1.519   1_655  S
C919        C925   1.521       .  S
C919        C924   1.529       .  S
C919       C1193   1.453       .  S
C920        C923   1.412   1_655  A
C921        C932   1.380       .  A
C921        C924   1.401       .  A
C922        C936   1.395       .  A
C922        C925   1.380       .  A
C924        C930   1.372       .  A
C925        C933   1.371       .  A
C926        N927   1.343       .  A
C926        H939   1.083       .  S
N927        C928   1.356       .  A
N927       C1181   1.441       .  S
C928        H929   1.083       .  S
C930        N931   1.350       .  A
C930        H940   1.083       .  S
N931        C932   1.355       .  A
N931       C1189   1.430       .  S
C932        H938   1.083       .  S
C933        N934   1.354       .  A
C933        H935   1.083       .  S
N934        C936   1.366       .  A
N934       C1198   1.441       .  S
C936        H937   1.082       .  S
C941        C943   1.549       .  S
C941        C945   1.550       .  S
C941        C944   1.525       .  S
C941       C1216   1.464       .  S
C942        C948   1.528       .  S
C942        C947   1.528       .  S
C942       C1196   1.452       .  S
C944        C955   1.373       .  A
C944        C947   1.383       .  A
C945        C959   1.399       .  A
C945        C948   1.401       .  A
C946        C949   1.373       .  A
C947        C953   1.374       .  A
C948        C956   1.381       .  A
C949        N950   1.346       .  A
C949        H962   1.083       .  S
N950        C951   1.358       .  A
N950       C1206   1.442       .  S
C951        H952   1.083       .  S
C953        N954   1.357       .  A
C953        H963   1.083       .  S
N954        C955   1.359       .  A
N954       C1202   1.434       .  S
C955        H961   1.082       .  S
C956        N957   1.352       .  A
C956        H958   1.083       .  S
N957        C959   1.360       .  A
N957       C1178   1.452       .  S
C959        H960   1.082       .  S
O964        C967   1.272       .  A
O964       Cd969   2.542       .  S
C965        O974   1.260       .  A
C965        O970   1.268       .  A
C965       C1177   1.490       .  S
O966        C972   1.267       .  A
O966       Cd969   2.445       .  S
C967        O975   1.264       .  A
C967       C1039   1.490       .  S
C968        O973   1.265       .  A
C968        O971   1.269       .  A
C968       C1173   1.479       .  S
Cd969       O976   2.435       .  S
Cd969       O975   2.494       .  S
Cd969       O974   2.460       .  S
Cd969       O970   2.574       .  S
Cd969       O973   2.478       .  S
Cd969       O971   2.475       .  S
C972        O976   1.261       .  A
C972       C1190   1.464       .  S
O977        C980   1.270       .  A
O977       Cd982   2.549       .  S
C978        O987   1.270       .  A
C978        O983   1.263       .  A
C978       C1166   1.485       .  S
O979        C985   1.259       .  A
O979       Cd982   2.450       .  S
C980        O988   1.262       .  A
C980       C1111   1.488       .  S
C981        O986   1.263       .  A
C981        O984   1.268       .  A
C981       C1162   1.475       .  S
Cd982       O989   2.431       .  S
Cd982       O988   2.501       .  S
Cd982       O987   2.539       .  S
Cd982       O983   2.449       .  S
Cd982       O986   2.439       .  S
Cd982       O984   2.514       .  S
C985        O989   1.264       .  A
C985       C1169   1.462       .  S
C990        C992   1.552       .  S
C990        C994   1.550       .  S
C990        C993   1.525       .  S
C990       C1153   1.467       .  S
C991        C995   1.526       .  S
C991        C997   1.525       .  S
C991        C996   1.528       .  S
C991       C1157   1.454       .  S
C992       C1000   1.393   1_545  A
C992        C995   1.413       .  A
C993       C1004   1.371       .  A
C993        C996   1.383       .  A
C994       C1008   1.397       .  A
C994        C997   1.390       .  A
C995       C1414   1.378   1_545  A
C996       C1002   1.373       .  A
C997       C1005   1.376       .  A
C998       C1411   1.377       .  A
C998        N999   1.348       .  A
C998       H1011   1.083       .  S
N999       C1416   1.356       .  A
N999       C1146   1.441       .  S
C1000      N1415   1.358       .  A
C1000      H1001   1.082       .  S
C1002      N1003   1.362       .  A
C1002      H1012   1.082       .  S
N1003      C1004   1.353       .  A
N1003      C1170   1.431       .  S
C1004      H1010   1.083       .  S
C1005      N1006   1.356       .  A
C1005      H1007   1.083       .  S
N1006      C1008   1.365       .  A
N1006      C1149   1.453       .  S
C1008      H1009   1.082       .  S
C1013      C1015   1.550       .  S
C1013      C1017   1.545       .  S
C1013      C1016   1.532       .  S
C1013      C1185   1.465       .  S
C1014      C1018   1.525       .  S
C1014      C1020   1.521       .  S
C1014      C1019   1.531       .  S
C1014      C1160   1.454       .  S
C1015      C1023   1.395       .  A
C1015      C1018   1.413       .  A
C1016      C1027   1.378       .  A
C1016      C1019   1.398       .  A
C1017      C1031   1.393       .  A
C1017      C1020   1.380       .  A
C1018      C1437   1.376   1_545  A
C1019      C1025   1.374       .  A
C1020      C1028   1.374   1_554  A
C1021      C1434   1.376       .  A
C1021      N1022   1.348       .  A
C1021      H1034   1.082       .  S
N1022      C1439   1.358       .  A
N1022      C1174   1.446       .  S
C1023      N1438   1.357   1_545  A
C1023      H1024   1.082       .  S
C1025      N1026   1.357       .  A
C1025      H1035   1.083       .  S
N1026      C1027   1.351       .  A
N1026      C1141   1.430       .  S
C1027      H1033   1.083       .  S
C1028      N1029   1.358       .  A
C1028      H1030   1.082       .  S
N1029      C1031   1.366   1_556  A
N1029      C1165   1.451       .  S
C1031      H1032   1.082       .  S
O1036      C1039   1.270       .  A
O1036     Cd1041   2.526       .  S
C1037      O1046   1.267       .  A
C1037      O1042   1.260       .  A
C1037      C1150   1.488       .  S
O1038      C1044   1.262       .  A
O1038     Cd1041   2.456       .  S
C1039      O1047   1.266       .  A
C1040      O1045   1.263       .  A
C1040      O1043   1.271       .  A
C1040      C1182   1.474       .  S
Cd1041     O1048   2.426       .  S
Cd1041     O1047   2.520       .  S
Cd1041     O1046   2.567       .  S
Cd1041     O1042   2.457       .  S
Cd1041     O1045   2.434       .  S
Cd1041     O1043   2.495       .  S
C1044      O1048   1.263       .  A
C1044      C1142   1.462       .  S
O1049      C1052   1.273       .  A
O1049     Cd1054   2.581       .  S
C1050      O1059   1.267       .  A
C1050      O1055   1.273       .  A
O1051      C1057   1.265       .  A
O1051     Cd1054   2.486       .  S
C1052      O1060   1.263       .  A
C1052      C1133   1.508       .  S
C1053      O1058   1.267       .  A
C1053      O1056   1.262       .  A
C1053      C1137   1.471       .  S
Cd1054     O1061   2.516       .  S
Cd1054     O1060   2.498       .  S
Cd1054     O1059   2.544       .  S
Cd1054     O1055   2.582       .  S
Cd1054     O1058   2.498       .  S
Cd1054     O1056   2.390       .  S
C1057      O1061   1.271       .  A
C1057      C1222   1.488       .  S
C1062      C1064   1.561       .  S
C1062      C1066   1.562       .  S
C1062      C1065   1.526       .  S
C1062      C1156   1.467       .  S
C1063      C1067   1.523       .  S
C1063      C1069   1.521       .  S
C1063      C1068   1.528       .  S
C1063      C1132   1.450       .  S
C1064      C1072   1.403       .  A
C1064      C1067   1.413       .  A
C1065      C1076   1.377       .  A
C1065      C1068   1.381       .  A
C1066      C1080   1.404       .  A
C1066      C1069   1.386       .  A
C1068      C1074   1.371       .  A
C1069      C1077   1.375       .  A
C1070      N1071   1.346       .  A
C1070      H1083   1.082       .  S
N1071      C1161   1.449       .  S
C1074      N1075   1.356       .  A
C1074      H1084   1.083       .  S
N1075      C1076   1.362       .  A
N1075      C1125   1.436       .  S
C1076      H1082   1.081       .  S
C1077      N1078   1.355       .  A
C1077      H1079   1.083       .  S
N1078      C1080   1.371       .  A
N1078      C1134   1.453       .  S
C1080      H1081   1.082       .  S
C1085      C1087   1.547       .  S
C1085      C1089   1.548       .  S
C1085      C1088   1.533       .  S
C1085      C1229   1.460       .  S
C1086      C1090   1.520       .  S
C1086      C1092   1.521       .  S
C1086      C1091   1.532       .  S
C1086      C1129   1.452       .  S
C1087      C1095   1.395       .  A
C1087      C1090   1.404       .  A
C1088      C1099   1.384       .  A
C1088      C1091   1.401       .  A
C1089      C1103   1.394       .  A
C1089      C1092   1.392       .  A
C1091      C1097   1.374       .  A
C1092      C1100   1.377       .  A
C1093      N1094   1.350       .  A
C1093      H1106   1.082       .  S
N1094      C1238   1.454       .  S
C1097      N1098   1.348       .  A
C1097      H1107   1.083       .  S
N1098      C1099   1.352       .  A
N1098      C1138   1.426       .  S
C1099      H1105   1.083       .  S
C1100      N1101   1.355       .  A
C1100      H1102   1.083       .  S
N1101      C1103   1.361       .  A
N1101      C1121   1.448       .  S
C1103      H1104   1.082       .  S
O1108      C1111   1.270       .  A
O1108     Cd1113   2.513       .  S
C1109      O1118   1.261       .  A
C1109      O1114   1.267       .  A
C1109      C1122   1.484       .  S
O1110      C1116   1.263       .  A
O1110     Cd1113   2.439       .  S
C1111      O1119   1.266       .  A
C1112      O1117   1.264       .  A
C1112      O1115   1.268       .  A
C1112      C1145   1.476       .  S
Cd1113     O1120   2.470       .  S
Cd1113     O1119   2.516       .  S
Cd1113     O1118   2.457       .  S
Cd1113     O1114   2.544       .  S
Cd1113     O1117   2.467       .  S
Cd1113     O1115   2.486       .  S
C1116      O1120   1.262       .  A
C1116      C1126   1.469       .  S
C1121      C1122   1.349       .  D
C1121      H1123   1.086       .  S
C1122      H1124   1.086       .  S
C1125      C1126   1.343       .  D
C1125      H1127   1.088       .  S
C1126      H1128   1.084       .  S
C1129      C1130   1.193       .  T
C1130      C1131   1.390       .  S
C1131      C1132   1.193       .  T
C1133      C1134   1.358       .  D
C1133      H1135   1.086       .  S
C1134      H1136   1.087       .  S
C1137      C1138   1.341       .  D
C1137      H1139   1.086       .  S
C1138      H1140   1.088       .  S
C1141      C1142   1.338       .  D
C1141      H1143   1.087       .  S
C1142      H1144   1.087       .  S
C1145      C1146   1.349       .  D
C1145      H1147   1.086       .  S
C1146      H1148   1.087       .  S
C1149      C1150   1.353   1_556  D
C1149      H1151   1.086       .  S
C1150      H1152   1.086   1_554  S
C1153      C1154   1.205       .  T
C1154      C1155   1.411       .  S
C1155      C1156   1.206       .  T
C1157      C1158   1.196       .  T
C1158      C1159   1.395       .  S
C1159      C1160   1.196   1_556  T
C1161      C1162   1.353       .  D
C1161      H1163   1.086       .  S
C1162      H1164   1.085       .  S
C1165      C1166   1.352       .  D
C1165      H1167   1.086       .  S
C1166      H1168   1.086       .  S
C1169      C1170   1.336       .  D
C1169      H1171   1.086       .  S
C1170      H1172   1.088       .  S
C1173      C1174   1.353       .  D
C1173      H1175   1.085       .  S
C1174      H1176   1.086       .  S
C1177      C1178   1.352       .  D
C1177      H1179   1.087       .  S
C1178      H1180   1.086       .  S
C1181      C1182   1.353       .  D
C1181      H1183   1.086       .  S
C1182      H1184   1.086       .  S
C1185      C1186   1.204       .  T
C1186      C1187   1.408       .  S
C1187      C1188   1.203       .  T
C1189      C1190   1.339       .  D
C1189      H1191   1.087       .  S
C1190      H1192   1.087       .  S
C1193      C1194   1.194       .  T
C1194      C1195   1.392       .  S
C1195      C1196   1.194       .  T
C1197      C1198   1.352       .  D
C1197      H1199   1.086       .  S
C1198      H1200   1.087       .  S
C1201      C1202   1.342       .  D
C1201      H1203   1.085       .  S
C1202      H1204   1.087       .  S
C1205      C1206   1.351       .  D
C1205      H1207   1.086       .  S
C1206      H1208   1.086       .  S
C1209      C1210   1.351       .  D
C1209      H1211   1.087       .  S
C1210      H1212   1.086       .  S
C1213      C1214   1.203       .  T
C1214      C1215   1.406       .  S
C1215      C1216   1.202       .  T
C1217      C1218   1.342       .  D
C1217      H1219   1.089       .  S
C1218      H1220   1.086       .  S
C1221      C1222   1.354       .  D
C1221      H1223   1.086       .  S
C1222      H1224   1.085       .  S
C1225      C1226   1.347       .  D
C1225      H1227   1.086       .  S
C1226      H1228   1.087       .  S
C1229      C1230   1.201       .  T
C1230      C1231   1.403       .  S
C1231      C1232   1.201       .  T
C1233      C1234   1.194       .  T
C1234      C1235   1.392       .  S
C1235      C1236   1.193       .  T
C1237      C1238   1.355       .  D
C1237      H1239   1.085       .  S
C1238      H1240   1.086       .  S
C1241      C1242   1.354       .  D
C1241      H1243   1.085       .  S
C1242      H1244   1.088       .  S
C1245      C1246   1.341       .  D
C1245      H1247   1.086       .  S
C1246      H1248   1.088       .  S
O1249      C1252   1.273       .  A
O1249     Cd1254   2.545       .  S
C1250      O1259   1.261       .  A
C1250      O1255   1.277       .  A
C1250      C1657   1.486       .  S
O1251      C1257   1.266       .  A
O1251     Cd1254   2.459       .  S
C1252      O1260   1.264       .  A
C1252      C1466   1.490       .  S
C1253      O1258   1.264       .  A
C1253      O1256   1.270       .  A
C1253      C1653   1.472       .  S
Cd1254     O1261   2.411       .  S
Cd1254     O1260   2.484       .  S
Cd1254     O1259   2.387       .  S
Cd1254     O1255   2.602       .  S
Cd1254     O1258   2.434       .  S
Cd1254     O1256   2.490       .  S
C1257      O1261   1.265       .  A
C1257      C1661   1.465       .  S
C1262      C1264   1.536       .  S
C1262      C1266   1.549       .  S
C1262      C1265   1.533       .  S
C1262      C1648   1.466       .  S
C1263      C1269   1.544       .  S
C1263      C1268   1.527       .  S
C1263      C1649   1.456       .  S
C1265      C1276   1.383       .  A
C1265      C1268   1.399       .  A
C1266      C1280   1.385       .  A
C1266      C1269   1.408       .  A
C1267      C1270   1.370       .  A
C1268      C1274   1.374       .  A
C1269      C1277   1.400       .  A
C1270      N1271   1.346       .  A
C1270      H1283   1.083       .  S
N1271      C1272   1.358       .  A
N1271      C1637   1.442       .  S
C1272      H1273   1.082       .  S
C1274      N1275   1.348       .  A
C1274      H1284   1.085       .  S
N1275      C1276   1.348       .  A
N1275      C1662   1.423       .  S
C1276      H1282   1.082       .  S
C1277      N1278   1.357       .  A
C1277      H1279   1.083       .  S
N1278      C1280   1.357       .  A
N1278      C1641   1.447       .  S
C1280      H1281   1.084       .  S
C1285      C1287   1.557   1_565  S
C1285      C1289   1.551       .  S
C1285      C1288   1.523       .  S
C1285      C1629   1.467       .  S
C1286      C1292   1.523       .  S
C1286      C1291   1.531       .  S
C1286      C1652   1.457       .  S
C1288      C1299   1.380       .  A
C1288      C1291   1.396       .  A
C1289      C1303   1.402       .  A
C1289      C1292   1.394       .  A
C1290      C1293   1.372       .  A
C1291      C1297   1.370       .  A
C1292      C1300   1.372       .  A
C1293      N1294   1.346       .  A
C1293      H1306   1.083       .  S
N1294      C1295   1.360       .  A
N1294      C1625   1.448       .  S
C1295      H1296   1.083       .  S
C1297      N1298   1.351       .  A
C1297      H1307   1.083       .  S
N1298      C1299   1.349       .  A
N1298      C1633   1.425       .  S
C1299      H1305   1.083       .  S
C1300      N1301   1.353       .  A
C1300      H1302   1.083       .  S
N1301      C1303   1.364       .  A
N1301      C1658   1.454       .  S
C1303      H1304   1.082       .  S
O1308      C1311   1.261       .  A
O1308     Cd1313   2.554       .  S
C1309      O1318   1.267       .  A
C1309      O1314   1.268       .  A
C1309      C1324   1.491       .  S
O1310      C1316   1.262       .  A
O1310     Cd1313   2.472       .  S
C1311      O1319   1.268       .  A
C1311      C1642   1.482       .  S
C1312      O1317   1.263       .  A
C1312      O1315   1.263       .  A
C1312      C1634   1.456       .  S
Cd1313     O1320   2.508       .  S
Cd1313     O1319   2.464       .  S
Cd1313     O1318   2.532       .  S
Cd1313     O1314   2.525       .  S
Cd1313     O1317   2.438       .  S
Cd1313     O1315   2.419       .  S
C1316      O1320   1.268       .  A
C1316      C1621   1.482       .  S
O1321      C1324   1.268       .  A
O1321     Cd1326   2.547       .  S
C1322      O1331   1.266       .  A
C1322      O1327   1.265       .  A
C1322      C1613   1.489       .  S
O1323      C1329   1.261       .  A
O1323     Cd1326   2.450       .  S
C1324      O1332   1.263       .  A
C1325      O1330   1.265       .  A
C1325      O1328   1.270       .  A
C1325      C1626   1.475       .  S
Cd1326     O1333   2.467       .  S
Cd1326     O1332   2.512       .  S
Cd1326     O1331   2.531       .  S
Cd1326     O1327   2.490       .  S
Cd1326     O1330   2.438       .  S
Cd1326     O1328   2.506       .  S
C1329      O1333   1.260       .  A
C1329      C1617   1.465       .  S
C1334      C1336   1.549       .  S
C1334      C1338   1.548       .  S
C1334      C1337   1.538       .  S
C1334      C1604   1.471       .  S
C1335      C1339   1.522       .  S
C1335      C1341   1.521       .  S
C1335      C1340   1.532       .  S
C1335      C1609   1.459       .  S
C1336      C1339   1.408       .  A
C1337      C1348   1.384       .  A
C1337      C1340   1.406       .  A
C1338      C1352   1.392       .  A
C1338      C1341   1.382       .  A
C1340      C1346   1.374       .  A
C1341      C1349   1.374       .  A
C1342      N1343   1.348       .  A
C1342      H1355   1.082       .  S
N1343      C1344   1.358       .  A
N1343      C1597   1.448       .  S
C1344      H1345   1.083       .  S
C1346      N1347   1.353       .  A
C1346      H1356   1.083       .  S
N1347      C1348   1.351       .  A
N1347      C1605   1.432       .  S
C1348      H1354   1.083       .  S
C1349      N1350   1.358       .  A
C1349      H1351   1.083       .  S
N1350      C1352   1.367       .  A
N1350      C1614   1.450       .  S
C1352      H1353   1.082       .  S
C1357      C1359   1.552   1_655  S
C1357      C1361   1.551       .  S
C1357      C1360   1.526       .  S
C1357      C1632   1.468       .  S
C1358      C1364   1.524       .  S
C1358      C1363   1.526       .  S
C1358      C1612   1.458       .  S
C1360      C1371   1.373       .  A
C1360      C1363   1.382       .  A
C1361      C1375   1.401       .  A
C1361      C1364   1.395       .  A
C1362      C1365   1.379       .  A
C1363      C1369   1.370       .  A
C1364      C1372   1.376       .  A
C1365      N1366   1.350       .  A
C1365      H1378   1.082       .  S
N1366      C1367   1.357       .  A
N1366      C1622   1.446       .  S
C1367      H1368   1.083       .  S
C1369      N1370   1.357       .  A
C1369      H1379   1.082       .  S
N1370      C1371   1.360       .  A
N1370      C1618   1.433       .  S
C1371      H1377   1.082       .  S
C1372      N1373   1.352       .  A
C1372      H1374   1.082       .  S
N1373      C1375   1.364       .  A
N1373      C1594   1.453       .  S
C1375      H1376   1.082       .  S
O1380      C1383   1.270       .  A
O1380     Cd1385   2.534       .  S
C1381      O1390   1.261       .  A
C1381      O1386   1.266       .  A
C1381      C1593   1.491       .  S
O1382      C1388   1.263       .  A
O1382     Cd1385   2.469       .  S
C1383      O1391   1.265       .  A
C1383      C1455   1.493       .  S
C1384      O1389   1.265       .  A
C1384      O1387   1.271       .  A
C1384      C1589   1.479       .  S
Cd1385     O1392   2.436       .  S
Cd1385     O1391   2.533       .  S
Cd1385     O1390   2.472       .  S
Cd1385     O1386   2.578       .  S
Cd1385     O1389   2.455       .  S
Cd1385     O1387   2.492       .  S
C1388      O1392   1.263       .  A
C1388      C1606   1.466       .  S
O1393      C1396   1.272       .  A
O1393     Cd1398   2.572       .  S
C1394      O1403   1.268       .  A
C1394      O1399   1.266       .  A
C1394      C1582   1.495       .  S
O1395      C1401   1.263       .  A
O1395     Cd1398   2.461       .  S
C1396      O1404   1.262       .  A
C1396      C1527   1.498       .  S
C1397      O1402   1.264       .  A
C1397      O1400   1.268       .  A
C1397      C1578   1.478       .  S
Cd1398     O1405   2.456       .  S
Cd1398     O1404   2.521       .  S
Cd1398     O1403   2.557       .  S
Cd1398     O1399   2.490       .  S
Cd1398     O1402   2.462       .  S
Cd1398     O1400   2.513       .  S
C1401      O1405   1.260       .  A
C1401      C1585   1.466       .  S
C1406      C1408   1.552       .  S
C1406      C1410   1.548       .  S
C1406      C1409   1.527       .  S
C1406      C1569   1.469       .  S
C1407      C1411   1.528       .  S
C1407      C1413   1.524       .  S
C1407      C1412   1.526       .  S
C1407      C1573   1.456       .  S
C1408      C1416   1.393       .  A
C1408      C1411   1.417       .  A
C1409      C1420   1.373       .  A
C1409      C1412   1.381       .  A
C1410      C1424   1.395       .  A
C1410      C1413   1.391       .  A
C1412      C1418   1.372       .  A
C1413      C1421   1.378       .  A
C1414      N1415   1.349       .  A
C1414      H1427   1.082       .  S
N1415      C1562   1.445       .  S
C1416      H1417   1.083       .  S
C1418      N1419   1.357       .  A
C1418      H1428   1.084       .  S
N1419      C1420   1.362       .  A
N1419      C1586   1.437       .  S
C1420      H1426   1.081       .  S
C1421      N1422   1.355       .  A
C1421      H1423   1.083       .  S
N1422      C1424   1.363       .  A
N1422      C1565   1.451       .  S
C1424      H1425   1.082       .  S
C1429      C1431   1.551       .  S
C1429      C1433   1.551       .  S
C1429      C1432   1.534       .  S
C1429      C1601   1.471       .  S
C1430      C1434   1.525       .  S
C1430      C1436   1.523       .  S
C1430      C1435   1.531       .  S
C1430      C1576   1.458       .  S
C1431      C1439   1.397       .  A
C1431      C1434   1.411       .  A
C1432      C1443   1.381       .  A
C1432      C1435   1.403       .  A
C1433      C1447   1.395       .  A
C1433      C1436   1.381       .  A
C1435      C1441   1.374       .  A
C1436      C1444   1.377   1_554  A
C1437      N1438   1.347       .  A
C1437      H1450   1.083       .  S
N1438      C1590   1.443       .  S
C1439      H1440   1.082       .  S
C1441      N1442   1.354       .  A
C1441      H1451   1.083       .  S
N1442      C1443   1.350       .  A
N1442      C1557   1.432       .  S
C1443      H1449   1.083       .  S
C1444      N1445   1.359       .  A
C1444      H1446   1.083       .  S
N1445      C1447   1.368   1_556  A
N1445      C1581   1.456       .  S
C1447      H1448   1.082       .  S
O1452      C1455   1.271       .  A
O1452     Cd1457   2.567       .  S
C1453      O1462   1.270       .  A
C1453      O1458   1.265       .  A
C1453      C1566   1.490       .  S
O1454      C1460   1.260       .  A
O1454     Cd1457   2.445       .  S
C1455      O1463   1.261       .  A
C1456      O1461   1.263       .  A
C1456      O1459   1.270       .  A
C1456      C1598   1.472       .  S
Cd1457     O1464   2.450       .  S
Cd1457     O1463   2.504       .  S
Cd1457     O1462   2.548       .  S
Cd1457     O1458   2.466       .  S
Cd1457     O1461   2.424       .  S
Cd1457     O1459   2.511       .  S
C1460      O1464   1.264       .  A
C1460      C1558   1.462       .  S
O1465      C1468   1.275       .  A
O1465     Cd1470   2.562       .  S
C1466      O1475   1.263       .  A
C1466      O1471   1.269       .  A
O1467      C1473   1.263       .  A
O1467     Cd1470   2.425       .  S
C1468      O1476   1.264       .  A
C1468      C1549   1.498       .  S
C1469      O1474   1.264       .  A
C1469      O1472   1.263       .  A
C1469      C1553   1.464       .  S
Cd1470     O1477   2.489       .  S
Cd1470     O1476   2.444       .  S
Cd1470     O1475   2.528       .  S
Cd1470     O1471   2.525       .  S
Cd1470     O1474   2.483       .  S
Cd1470     O1472   2.401       .  S
C1473      O1477   1.269       .  A
C1473      C1638   1.468       .  S
C1478      C1480   1.557       .  S
C1478      C1482   1.556       .  S
C1478      C1481   1.528       .  S
C1478      C1572   1.468       .  S
C1479      C1483   1.521       .  S
C1479      C1485   1.515       .  S
C1479      C1484   1.526       .  S
C1479      C1548   1.454       .  S
C1480      C1488   1.399       .  A
C1480      C1483   1.415       .  A
C1481      C1492   1.376       .  A
C1481      C1484   1.383       .  A
C1482      C1496   1.400       .  A
C1482      C1485   1.385       .  A
C1484      C1490   1.369       .  A
C1485      C1493   1.368       .  A
C1486      N1487   1.348       .  A
C1486      H1499   1.083       .  S
N1487      C1577   1.446       .  S
C1490      N1491   1.356       .  A
C1490      H1500   1.083       .  S
N1491      C1492   1.362       .  A
N1491      C1541   1.435       .  S
C1492      H1498   1.082       .  S
C1493      N1494   1.352       .  A
C1493      H1495   1.083       .  S
N1494      C1496   1.369       .  A
N1494      C1550   1.445       .  S
C1496      H1497   1.082       .  S
C1501      C1503   1.550       .  S
C1501      C1505   1.558       .  S
C1501      C1504   1.531       .  S
C1501      C1645   1.465       .  S
C1502      C1506   1.516       .  S
C1502      C1508   1.525       .  S
C1502      C1507   1.533       .  S
C1502      C1545   1.454       .  S
C1503      C1511   1.398       .  A
C1503      C1506   1.402       .  A
C1504      C1515   1.384       .  A
C1504      C1507   1.403       .  A
C1505      C1519   1.404       .  A
C1505      C1508   1.398       .  A
C1507      C1513   1.372       .  A
C1508      C1516   1.379       .  A
C1509      N1510   1.349       .  A
C1509      H1522   1.082       .  S
N1510      C1654   1.444       .  S
C1513      N1514   1.347       .  A
C1513      H1523   1.083       .  S
N1514      C1515   1.352       .  A
N1514      C1554   1.428       .  S
C1515      H1521   1.083       .  S
C1516      N1517   1.353       .  A
C1516      H1518   1.082       .  S
N1517      C1519   1.365       .  A
N1517      C1537   1.458       .  S
C1519      H1520   1.082       .  S
O1524      C1527   1.273       .  A
O1524     Cd1529   2.540       .  S
C1525      O1534   1.268       .  A
C1525      O1530   1.261       .  A
C1525      C1538   1.496       .  S
O1526      C1532   1.266       .  A
O1526     Cd1529   2.468       .  S
C1527      O1535   1.266       .  A
C1528      O1533   1.264       .  A
C1528      O1531   1.270       .  A
C1528      C1561   1.481       .  S
Cd1529     O1536   2.440       .  S
Cd1529     O1535   2.527       .  S
Cd1529     O1534   2.595       .  S
Cd1529     O1530   2.473       .  S
Cd1529     O1533   2.466       .  S
Cd1529     O1531   2.505       .  S
C1532      O1536   1.259       .  A
C1532      C1542   1.466       .  S
C1537      C1538   1.357       .  D
C1537      H1539   1.086       .  S
C1538      H1540   1.086       .  S
C1541      C1542   1.340       .  D
C1541      H1543   1.088       .  S
C1542      H1544   1.085       .  S
C1545      C1546   1.194       .  T
C1546      C1547   1.393       .  S
C1547      C1548   1.195       .  T
C1549      C1550   1.353       .  D
C1549      H1551   1.085       .  S
C1550      H1552   1.087       .  S
C1553      C1554   1.339       .  D
C1553      H1555   1.086       .  S
C1554      H1556   1.089       .  S
C1557      C1558   1.338       .  D
C1557      H1559   1.087       .  S
C1558      H1560   1.086       .  S
C1561      C1562   1.352       .  D
C1561      H1563   1.085       .  S
C1562      H1564   1.086       .  S
C1565      C1566   1.352   1_556  D
C1565      H1567   1.085       .  S
C1566      H1568   1.086   1_554  S
C1569      C1570   1.206       .  T
C1570      C1571   1.412       .  S
C1571      C1572   1.206       .  T
C1573      C1574   1.197       .  T
C1574      C1575   1.397   1_556  S
C1575      C1576   1.197       .  T
C1577      C1578   1.349       .  D
C1577      H1579   1.086       .  S
C1578      H1580   1.086       .  S
C1581      C1582   1.356       .  D
C1581      H1583   1.085       .  S
C1582      H1584   1.085       .  S
C1585      C1586   1.343       .  D
C1585      H1587   1.084       .  S
C1586      H1588   1.089       .  S
C1589      C1590   1.353       .  D
C1589      H1591   1.086       .  S
C1590      H1592   1.086       .  S
C1593      C1594   1.354       .  D
C1593      H1595   1.086       .  S
C1594      H1596   1.086       .  S
C1597      C1598   1.350       .  D
C1597      H1599   1.087       .  S
C1598      H1600   1.084       .  S
C1601      C1602   1.207       .  T
C1602      C1603   1.414       .  S
C1603      C1604   1.207       .  T
C1605      C1606   1.340       .  D
C1605      H1607   1.087       .  S
C1606      H1608   1.087       .  S
C1609      C1610   1.198       .  T
C1610      C1611   1.399       .  S
C1611      C1612   1.198       .  T
C1613      C1614   1.353       .  D
C1613      H1615   1.086       .  S
C1614      H1616   1.086       .  S
C1617      C1618   1.342       .  D
C1617      H1619   1.085       .  S
C1618      H1620   1.087       .  S
C1621      C1622   1.353       .  D
C1621      H1623   1.085       .  S
C1622      H1624   1.086       .  S
C1625      C1626   1.351       .  D
C1625      H1627   1.086       .  S
C1626      H1628   1.085       .  S
C1629      C1630   1.205       .  T
C1630      C1631   1.410       .  S
C1631      C1632   1.205       .  T
C1633      C1634   1.336       .  D
C1633      H1635   1.087       .  S
C1634      H1636   1.086       .  S
C1637      C1638   1.348       .  D
C1637      H1639   1.087       .  S
C1638      H1640   1.085       .  S
C1641      C1642   1.355       .  D
C1641      H1643   1.088       .  S
C1642      H1644   1.087       .  S
C1645      C1646   1.203       .  T
C1646      C1647   1.408       .  S
C1647      C1648   1.203       .  T
C1649      C1650   1.197       .  T
C1650      C1651   1.398       .  S
C1651      C1652   1.197       .  T
C1653      C1654   1.347       .  D
C1653      H1655   1.085       .  S
C1654      H1656   1.087       .  S
C1657      C1658   1.351       .  D
C1657      H1659   1.087       .  S
C1658      H1660   1.086       .  S
C1661      C1662   1.336       .  D
C1661      H1663   1.087       .  S
C1662      H1664   1.088       .  S
