geometry optimzed in LAMMPS
_audit_creation_date              2020-11-30 
_audit_creation_method            'lammps2cif' 
_symmetry_space_group_name_H-M    'P1' 
_symmetry_Int_Tables_number       1 
_symmetry_cell_setting            triclinic 
loop_ 
_symmetry_equiv_pos_as_xyz 
  x,y,z 
_cell_length_a                    49.67808547416012 
_cell_length_b                    49.627290339385425 
_cell_length_c                    24.824797737996285 
_cell_angle_alpha                 90.05826867901722 
_cell_angle_beta                  89.90164395839126 
_cell_angle_gamma                 122.88192443920695 
loop_ 
_atom_site_label 
_atom_site_type_symbol 
_atom_site_fract_x 
_atom_site_fract_y 
_atom_site_fract_z 
_atom_site_charge 
N1          N  0.23333453  0.38061349  0.57852624    -0.27240
N2          N  0.20790495  0.35222493  0.56519068    -0.35100
C3          C  0.20659733  0.32972144  0.59774360     0.01100
C4          C  0.23252305  0.34481364  0.63255169     0.07130
C5          C  0.24880547  0.37686919  0.61904777    -0.05970
H6          H  0.18841805  0.30432892  0.59574074     0.07800
H7          H  0.27035056  0.39630262  0.63774422     0.09000
Cu8        Cu  0.17635001  0.34528293  0.50290920     0.44170
Cu9        Cu  0.24735209  0.42496218  0.54616764     0.41990
Cu10       Cu  0.19050075  0.42299178  0.46517552     0.43880
N11         N  0.15175312  0.35147543  0.44081462    -0.34620
N12         N  0.15721124  0.38008802  0.42964157    -0.28880
C13         C  0.13884451  0.37771506  0.38837594    -0.04980
C14         C  0.12072837  0.34619751  0.37199347     0.07240
C15         C  0.12935192  0.32991208  0.40610149     0.01030
H16         H  0.13892847  0.39779193  0.37117974     0.08690
H17         H  0.12001437  0.30450093  0.40591892     0.07760
N18         N  0.23053741  0.46597954  0.48813481    -0.36070
N19         N  0.25335596  0.46703181  0.51688283    -0.28250
C20         C  0.27769255  0.49786975  0.52257473    -0.03490
C21         C  0.26950294  0.51705832  0.49605491     0.05120
C22         C  0.23933439  0.49593762  0.47496001     0.03210
H23         H  0.29940495  0.50570516  0.54496322     0.08320
H24         H  0.22517358  0.50184777  0.45065795     0.07150
N25         N  0.33417962  0.27778419  0.91970210    -0.27240
N26         N  0.30562978  0.25328905  0.93501537    -0.35100
C27         C  0.28302261  0.25267416  0.90381655     0.01100
C28         C  0.29818301  0.27811779  0.86797560     0.07130
C29         C  0.33039637  0.29337966  0.87938751    -0.05970
H30         H  0.25751089  0.23537533  0.90759446     0.07800
H31         H  0.34990194  0.31432719  0.85941561     0.09000
Cu32       Cu  0.29817429  0.22215158  0.99862162     0.44170
Cu33       Cu  0.37885292  0.29085694  0.94928946     0.41990
Cu34       Cu  0.37534705  0.23849388  0.04233596     0.43880
N35         N  0.30364579  0.19798341  0.06252664    -0.34620
N36         N  0.33232530  0.20448526  0.07596217    -0.28880
C37         C  0.32972423  0.18600159  0.11720816    -0.04980
C38         C  0.29794981  0.16670055  0.13135087     0.07240
C39         C  0.28174724  0.17477122  0.09591716     0.01030
H40         H  0.34980074  0.18669927  0.13572999     0.08690
H41         H  0.25617723  0.16437478  0.09410138     0.07760
N42         N  0.41869693  0.27639070  0.01612973    -0.36070
N43         N  0.42060483  0.29721556  0.98102874    -0.28250
C44         C  0.45173079  0.32029856  0.97332122    -0.03490
C45         C  0.47025392  0.31338607  0.00527223     0.05120
C46         C  0.44822671  0.28535859  0.03204855     0.03210
H47         H  0.46020817  0.34061270  0.94669467     0.08320
H48         H  0.45297922  0.27292232  0.06249561     0.07150
N49         N  0.22866271  0.38124654  0.91443770    -0.27240
N50         N  0.20543718  0.35263453  0.93214618    -0.35100
C51         C  0.20556237  0.32990054  0.90227972     0.01100
C52         C  0.23022871  0.34508504  0.86495489     0.07130
C53         C  0.24422488  0.37741612  0.87403685    -0.05970
H54         H  0.18952099  0.30432031  0.90829360     0.07800
H55         H  0.26445215  0.39695721  0.85273019     0.09000
Cu56       Cu  0.17570298  0.34533325  0.99825642     0.44170
Cu57       Cu  0.24096644  0.42604730  0.94226094     0.41990
Cu58       Cu  0.19877803  0.42294921  0.05281825     0.43880
N59         N  0.15385893  0.35097478  0.06600747    -0.34620
N60         N  0.16309338  0.37989945  0.08367805    -0.28880
C61         C  0.14503611  0.37746966  0.12554775    -0.04980
C62         C  0.12320159  0.34554051  0.13581983     0.07240
C63         C  0.12932119  0.32905326  0.09743253     0.01030
H64         H  0.14744816  0.39776720  0.14664423     0.08690
H65         H  0.11639096  0.30334291  0.09177510     0.07760
N66         N  0.23424856  0.46620165  0.02210808    -0.36070
N67         N  0.25034379  0.46797713  0.97862232    -0.28250
C68         C  0.27187271  0.49912010  0.96733298    -0.03490
C69         C  0.26926444  0.51760016  0.00649573     0.05120
C70         C  0.24503792  0.49583009  0.04039022     0.03210
H71         H  0.28864190  0.50764574  0.93407198     0.08320
H72         H  0.23570371  0.50104677  0.07549176     0.07150
N73         N  0.87582643  0.22940502  0.58536718    -0.27240
N74         N  0.89885953  0.22581545  0.56780936    -0.35100
C75         C  0.89987065  0.20415647  0.59861916     0.01100
C76         C  0.87598322  0.19317015  0.63677246     0.07130
C77         C  0.86109828  0.20952174  0.62730153    -0.05970
H78         H  0.91616712  0.19631826  0.59256587     0.07800
H79         H  0.84120239  0.20730208  0.64942857     0.09000
Cu80       Cu  0.92666874  0.24825293  0.50086974     0.44170
Cu81       Cu  0.86592480  0.26166606  0.55269785     0.41990
Cu82       Cu  0.91663267  0.30759842  0.44064185     0.43880
N83         N  0.95124234  0.27348936  0.43302544    -0.34620
N84         N  0.94834849  0.29629798  0.41232781    -0.28880
C85         C  0.96860210  0.30977343  0.37066735    -0.04980
C86         C  0.98464288  0.29435830  0.36450010     0.07240
C87         C  0.97304264  0.27135276  0.40444101     0.01030
H88         H  0.97135128  0.32927794  0.34656090     0.08690
H89         H  0.98054011  0.25502624  0.41317394     0.07760
N90         N  0.88194118  0.31370946  0.47236836    -0.36070
N91         N  0.86324347  0.29706564  0.51331263    -0.28250
C92         C  0.84315657  0.30677938  0.52318074    -0.03490
C93         C  0.84959803  0.33077122  0.48666645     0.05120
C94         C  0.87425952  0.33428185  0.45491603     0.03210
H95         H  0.82522287  0.29706263  0.55468736     0.08320
H96         H  0.88536124  0.34986834  0.42053982     0.07150
N97         N  0.87440777  0.22749654  0.92091439    -0.27240
N98         N  0.89819959  0.22473042  0.93684237    -0.35100
C99         C  0.89977306  0.20381691  0.90480221     0.01100
C100        C  0.87550034  0.19247424  0.86746920     0.07130
C101        C  0.85978672  0.20783838  0.87871657    -0.05970
H102        H  0.91672598  0.19670303  0.90948915     0.07800
H103        H  0.83935273  0.20504678  0.85770040     0.09000
Cu104      Cu  0.92644306  0.24733616  0.00303056     0.44170
Cu105      Cu  0.86343583  0.25844984  0.95606576     0.41990
Cu106      Cu  0.91863445  0.30878168  0.06036201     0.43880
N107        N  0.95182677  0.27324994  0.06962101    -0.34620
N108        N  0.94986108  0.29689588  0.08911805    -0.28880
C109        C  0.97030603  0.31046832  0.13041919    -0.04980
C110        C  0.98553850  0.29430026  0.13753116     0.07240
C111        C  0.97322637  0.27070740  0.09855610     0.01030
H112        H  0.97367842  0.33050728  0.15376232     0.08690
H113        H  0.97991661  0.25363996  0.09075746     0.07760
N114        N  0.88197652  0.31299093  0.03237909    -0.36070
N115        N  0.86112234  0.29412377  0.99541955    -0.28250
C116        C  0.83983387  0.30255124  0.98811781    -0.03490
C117        C  0.84759747  0.32810739  0.02219004     0.05120
C118        C  0.87472995  0.33400000  0.04935862     0.03210
H119        H  0.82010862  0.29068108  0.96003759     0.08320
H120        H  0.88881003  0.35226685  0.07894718     0.07150
N121        N  0.65919476  0.40292887  0.03747632    -0.27240
N122        N  0.65970753  0.42952312  0.04528258    -0.35100
C123        C  0.62946199  0.42249202  0.04363203     0.01100
C124        C  0.60876026  0.38980687  0.03381729     0.07130
C125        C  0.62872861  0.37833397  0.03051237    -0.05970
H126        H  0.62333812  0.44012035  0.04924961     0.07800
H127        H  0.62182904  0.35398600  0.02227372     0.09000
Cu128      Cu  0.70193387  0.47446418  0.05374557     0.44170
Cu129      Cu  0.69993829  0.40131820  0.03508943     0.41990
Cu130      Cu  0.77632766  0.47701530  0.04872081     0.43880
N131        N  0.74719813  0.51674715  0.05112359    -0.34620
N132        N  0.77420842  0.51763523  0.04815482    -0.28880
C133        C  0.79884958  0.54834500  0.04354988    -0.04980
C134        C  0.78700187  0.56810566  0.04365150     0.07240
C135        C  0.75399090  0.54690865  0.04894071     0.01030
H136        H  0.82355868  0.55553734  0.03941399     0.08690
H137        H  0.73585745  0.55251180  0.05123082     0.07760
N138        N  0.77145227  0.43284183  0.04381659    -0.36070
N139        N  0.74366085  0.40543254  0.03671035    -0.28250
C140        C  0.74875756  0.38157922  0.03168069    -0.03490
C141        C  0.78128180  0.39457116  0.03634420     0.05120
C142        C  0.79495661  0.42706789  0.04437802     0.03210
H143        H  0.73011794  0.35660496  0.02557300     0.08320
H144        H  0.82018996  0.44527893  0.04884490     0.07150
N145        N  0.90340166  0.84813174  0.08473190    -0.27240
N146        N  0.92881186  0.87574789  0.06846513    -0.35100
C147        C  0.93120687  0.89961744  0.09890739     0.01100
C148        C  0.90594655  0.88607978  0.13538143     0.07130
C149        C  0.88902847  0.85361461  0.12496371    -0.05970
H150        H  0.94955432  0.92481703  0.09425975     0.07800
H151        H  0.86771042  0.83505130  0.14555332     0.09000
Cu152      Cu  0.95815106  0.87887742  0.00472393     0.44170
Cu153      Cu  0.88786876  0.80255053  0.05696980     0.41990
Cu154      Cu  0.93857114  0.79784158  0.96958666     0.43880
N155        N  0.97952071  0.86899383  0.94138115    -0.34620
N156        N  0.97205192  0.83956627  0.93061732    -0.28880
C157        C  0.98939846  0.84035052  0.88867923    -0.04980
C158        C  0.00887190  0.87160781  0.87153952     0.07240
C159        C  0.00212468  0.88937913  0.90576074     0.01030
H160        H  0.98799839  0.81946557  0.87201704     0.08690
H161        H  0.01311804  0.91509682  0.90537177     0.07760
N162        N  0.90022527  0.75693765  0.00327561    -0.36070
N163        N  0.87968053  0.75849783  0.03461971    -0.28250
C164        C  0.85618941  0.72857892  0.04899865    -0.03490
C165        C  0.86267426  0.70723071  0.02597262     0.05120
C166        C  0.89080754  0.72608556  0.99720441     0.03210
H167        H  0.83629335  0.72282854  0.07511169     0.08320
H168        H  0.90317731  0.71797165  0.97290726     0.07150
O169        O  0.01535378  0.28139240  0.30931134    -0.72890
O170        O  0.08256556  0.30519795  0.19412185    -0.73870
O171        O  0.08228558  0.30582012  0.31088009    -0.62490
O172        O  0.01563157  0.28109031  0.19400466    -0.70900
O173        O  0.02663895  0.33088759  0.19498772    -0.70460
O174        O  0.09131261  0.35479297  0.30858121    -0.61710
O175        O  0.09237530  0.35449413  0.19586811    -0.74220
O176        O  0.02565223  0.33090731  0.30642583    -0.73000
Cu177      Cu  0.04857060  0.29143307  0.25207158     1.04560
Cu178      Cu  0.05946411  0.34436237  0.25139101     1.04330
C179        C  0.00977331  0.30245735  0.32508747     0.93310
C180        C  0.09804387  0.33412800  0.17699539     0.92440
C181        C  0.09697616  0.33467899  0.32842711     0.84590
C182        C  0.01051010  0.30228708  0.17710871     0.90860
N183        N  0.17905176  0.92018138  0.58306600    -0.27240
N184        N  0.17612836  0.94383981  0.56669933    -0.35100
C185        C  0.15531449  0.94553544  0.59879573     0.01100
C186        C  0.14420079  0.92148345  0.63660072     0.07130
C187        C  0.15958098  0.90576639  0.62557056    -0.05970
H188        H  0.14806289  0.96237244  0.59377207     0.07800
H189        H  0.15690279  0.88544290  0.64691353     0.09000
Cu190      Cu  0.19830342  0.97177539  0.49988470     0.44170
Cu191      Cu  0.20992481  0.90898576  0.54830418     0.41990
Cu192      Cu  0.25906318  0.96336225  0.44242714     0.43880
N193        N  0.22415321  0.99705129  0.43305832    -0.34620
N194        N  0.24759533  0.99480340  0.41351242    -0.28880
C195        C  0.26134521  0.01524051  0.37219752    -0.04980
C196        C  0.24550012  0.03078004  0.36509973     0.07240
C197        C  0.22190779  0.01865385  0.40409946     0.01030
H198        H  0.28128278  0.01839644  0.34885428     0.08690
H199        H  0.20505674  0.02560980  0.41189459     0.07760
N200        N  0.26387299  0.92725978  0.47109338    -0.36070
N201        N  0.24559233  0.90671361  0.50888948    -0.28250
C202        C  0.25466957  0.88595452  0.51677335    -0.03490
C203        C  0.28005037  0.89377658  0.48215793     0.05120
C204        C  0.28507517  0.92034645  0.45404433     0.03210
H205        H  0.24341179  0.86662172  0.54573133     0.08320
H206        H  0.30279613  0.93429741  0.42364305     0.07150
N207        N  0.47075485  0.82197729  0.45958963    -0.27240
N208        N  0.47034984  0.79529189  0.46561110    -0.35100
C209        C  0.50075779  0.80297849  0.46977636     0.01100
C210        C  0.52137902  0.83611979  0.46660544     0.07130
C211        C  0.50130011  0.84722636  0.45981634    -0.05970
H212        H  0.50730563  0.78566076  0.47567852     0.07800
H213        H  0.50812662  0.87178695  0.45483015     0.09000
Cu214      Cu  0.42842094  0.74953699  0.46898399     0.44170
Cu215      Cu  0.43004438  0.82363687  0.45383841     0.41990
Cu216      Cu  0.35480921  0.74763744  0.46421145     0.43880
N217        N  0.38294060  0.70722267  0.47064918    -0.34620
N218        N  0.35624587  0.70688564  0.46762640    -0.28880
C219        C  0.33095685  0.67644607  0.46956883    -0.04980
C220        C  0.34193288  0.65609567  0.47486362     0.07240
C221        C  0.37522013  0.67677886  0.47510115     0.01030
H222        H  0.30654472  0.67020104  0.46712673     0.08690
H223        H  0.39273063  0.67037488  0.47912100     0.07760
N224        N  0.35865440  0.79117550  0.46417001    -0.36070
N225        N  0.38609031  0.81907942  0.45837906    -0.28250
C226        C  0.38038031  0.84263940  0.45959063    -0.03490
C227        C  0.34786230  0.82881296  0.46743147     0.05120
C228        C  0.33481450  0.79617786  0.47008979     0.03210
H229        H  0.39862629  0.86796974  0.45646038     0.08320
H230        H  0.30982815  0.77740832  0.47546666     0.07150
N231        N  0.80200067  0.95406439  0.41468918    -0.27240
N232        N  0.82972378  0.97827762  0.43317523    -0.35100
C233        C  0.85364704  0.98000221  0.40386883     0.01100
C234        C  0.83995833  0.95547053  0.36598791     0.07130
C235        C  0.80741275  0.93974615  0.37432607    -0.05970
H236        H  0.87893955  0.99718606  0.41052752     0.07800
H237        H  0.78874823  0.91912083  0.35249070     0.09000
Cu238      Cu  0.83270684  0.00635661  0.49903723     0.44170
Cu239      Cu  0.75641809  0.93918780  0.44074395     0.41990
Cu240      Cu  0.75104269  0.98154538  0.54373251     0.43880
N241        N  0.82283013  0.02660891  0.56435758    -0.34620
N242        N  0.79326657  0.01730859  0.57842746    -0.28880
C243        C  0.79427662  0.03502245  0.61996460    -0.04980
C244        C  0.82580395  0.05654696  0.63355245     0.07240
C245        C  0.84351000  0.05065051  0.59764248     0.01030
H246        H  0.77334155  0.03248231  0.63875217     0.08690
H247        H  0.86934759  0.06331925  0.59506809     0.07760
N248        N  0.71020897  0.94468271  0.50730831    -0.36070
N249        N  0.71217212  0.92812131  0.46780878    -0.28250
C250        C  0.68245703  0.90588125  0.45067099    -0.03490
C251        C  0.66054316  0.90854603  0.48127398     0.05120
C252        C  0.67922639  0.93359923  0.51671063     0.03210
H253        H  0.67743397  0.88971693  0.41744801     0.08320
H254        H  0.67096906  0.94306330  0.54722280     0.07150
N255        N  0.33487443  0.27651381  0.58461789    -0.27240
N256        N  0.30622360  0.25289871  0.56788334    -0.35100
C257        C  0.28365016  0.25267971  0.59870816     0.01100
C258        C  0.29893989  0.27747619  0.63572980     0.07130
C259        C  0.33119532  0.29195923  0.62542538    -0.05970
H260        H  0.25807502  0.23624680  0.59363766     0.07800
H261        H  0.35077968  0.31239495  0.64622713     0.09000
Cu262      Cu  0.29841263  0.22276761  0.50220459     0.44170
Cu263      Cu  0.37951664  0.28916856  0.55541044     0.41990
Cu264      Cu  0.37537513  0.24438026  0.44794839     0.43880
N265        N  0.30340969  0.20014348  0.43503866    -0.34620
N266        N  0.33217809  0.20888185  0.41742583    -0.28880
C267        C  0.32943681  0.19045723  0.37594545    -0.04980
C268        C  0.29745205  0.16887069  0.36589522     0.07240
C269        C  0.28126401  0.17554665  0.40399805     0.01030
H270        H  0.34955812  0.19244692  0.35496114     0.08690
H271        H  0.25560432  0.16296249  0.40972747     0.07760
N272        N  0.41886366  0.27978570  0.47782030    -0.36070
N273        N  0.42105897  0.29721630  0.51954021    -0.28250
C274        C  0.45228470  0.31861016  0.53005027    -0.03490
C275        C  0.47063231  0.31425039  0.49277914     0.05120
C276        C  0.44827958  0.28941248  0.46011836     0.03210
H277        H  0.46090416  0.33602221  0.56231048     0.08320
H278        H  0.45262990  0.27946884  0.42497478     0.07150
N279        N  0.77480946  0.51868569  0.45776906    -0.27240
N280        N  0.74773593  0.51766018  0.46073283    -0.35100
C281        C  0.75451233  0.54778500  0.46384052     0.01100
C282        C  0.78762453  0.56914971  0.46229180     0.07130
C283        C  0.79952176  0.54949509  0.45848289    -0.05970
H284        H  0.73633223  0.55321241  0.46826182     0.07800
H285        H  0.82435540  0.55685192  0.45650488     0.09000
Cu286      Cu  0.70264403  0.47532269  0.46118065     0.44170
Cu287      Cu  0.77691674  0.47808923  0.45557110     0.41990
Cu288      Cu  0.70021454  0.40152492  0.45327081     0.43880
N289        N  0.66041333  0.43015122  0.46250788    -0.34620
N290        N  0.65958055  0.40314337  0.45932873    -0.28880
C291        C  0.62899949  0.37820623  0.46316330    -0.04980
C292        C  0.60944392  0.38997334  0.46938237     0.07240
C293        C  0.63032957  0.42310998  0.46835173     0.01030
H294        H  0.62169432  0.35332253  0.46286698     0.08690
H295        H  0.62433340  0.44098192  0.47129594     0.07760
N296        N  0.74411825  0.40609512  0.45606694    -0.36070
N297        N  0.77199647  0.43384608  0.45759245    -0.28250
C298        C  0.79549144  0.42825205  0.46239787    -0.03490
C299        C  0.78178401  0.39534779  0.46425320     0.05120
C300        C  0.74911208  0.38213615  0.45967262     0.03210
H301        H  0.82066253  0.44688370  0.46565707     0.08320
H302        H  0.73013113  0.35702125  0.45883958     0.07150
N303        N  0.90510978  0.84960422  0.41736482    -0.27240
N304        N  0.92987522  0.87736979  0.43465357    -0.35100
C305        C  0.93186509  0.90115744  0.40454868     0.01100
C306        C  0.90697958  0.88735440  0.36738031     0.07130
C307        C  0.89073679  0.85487498  0.37701971    -0.05970
H308        H  0.94961293  0.92646210  0.40996054     0.07800
H309        H  0.86985883  0.83613354  0.35581583     0.09000
Cu310      Cu  0.95871459  0.88068119  0.49956945     0.44170
Cu311      Cu  0.89008230  0.80400711  0.44367508     0.41990
Cu312      Cu  0.93631175  0.79924217  0.53926820     0.43880
N313        N  0.97949364  0.87070518  0.56394440    -0.34620
N314        N  0.97089935  0.84108697  0.57612628    -0.28880
C315        C  0.98829852  0.84170995  0.61768797    -0.04980
C316        C  0.00897219  0.87304908  0.63331169     0.07240
C317        C  0.00287516  0.89107166  0.59851407     0.01030
H318        H  0.98611493  0.82062483  0.63510646     0.08690
H319        H  0.01490729  0.91691702  0.59767633     0.07760
N320        N  0.89937201  0.75830305  0.50366199    -0.36070
N321        N  0.88096635  0.75991606  0.46748006    -0.28250
C322        C  0.85860694  0.73005826  0.45099623    -0.03490
C323        C  0.86343172  0.70855381  0.47811089     0.05120
C324        C  0.88948674  0.72747131  0.51144836     0.03210
H325        H  0.84054558  0.72448650  0.42095280     0.08320
H326        H  0.90018255  0.71953437  0.54000706     0.07150
N327        N  0.17713423  0.91780241  0.92283152    -0.27240
N328        N  0.17506987  0.94210795  0.93842832    -0.35100
C329        C  0.15476619  0.94431265  0.90594360     0.01100
C330        C  0.14314293  0.91994225  0.86859348     0.07130
C331        C  0.15767072  0.90349533  0.88036426    -0.05970
H332        H  0.14832637  0.96182714  0.91021489     0.07800
H333        H  0.15450041  0.88282016  0.85945226     0.09000
Cu334      Cu  0.19826860  0.97036566  0.00436023     0.44170
Cu335      Cu  0.20732070  0.90614967  0.95843281     0.41990
Cu336      Cu  0.26060327  0.96305523  0.05914091     0.43880
N337        N  0.22490826  0.99600715  0.07021453    -0.34620
N338        N  0.24882037  0.99428595  0.08885172    -0.28880
C339        C  0.26263135  0.01489643  0.12999559    -0.04980
C340        C  0.24633356  0.02996262  0.13783802     0.07240
C341        C  0.22245606  0.01739822  0.09948312     0.01030
H342        H  0.28289924  0.01848338  0.15272681     0.08690
H343        H  0.20519264  0.02388206  0.09236492     0.07760
N344        N  0.26394364  0.92591048  0.03027115    -0.36070
N345        N  0.24361647  0.90414329  0.99549443    -0.28250
C346        C  0.25155430  0.88248706  0.98742135    -0.03490
C347        C  0.27829957  0.89132309  0.01827456     0.05120
C348        C  0.28559356  0.91900210  0.04467578     0.03210
H349        H  0.23923062  0.86227311  0.96021528     0.08320
H350        H  0.30491763  0.93284213  0.07293072     0.07150
N351        N  0.47061774  0.82041226  0.04469025    -0.27240
N352        N  0.46982815  0.79339266  0.04248537    -0.35100
C353        C  0.50006652  0.80046167  0.03972548     0.01100
C354        C  0.52106517  0.83362007  0.04046269     0.07130
C355        C  0.50130828  0.84533534  0.04349016    -0.05970
H356        H  0.50602648  0.78261171  0.03563334     0.07800
H357        H  0.50860570  0.87020861  0.04441805     0.09000
Cu358      Cu  0.42751223  0.74812048  0.04083189     0.44170
Cu359      Cu  0.42999121  0.82238230  0.04587032     0.41990
Cu360      Cu  0.35427817  0.74671509  0.02717274     0.43880
N361        N  0.38223428  0.70611730  0.03451390    -0.34620
N362        N  0.35564088  0.70578943  0.02787426    -0.28880
C363        C  0.33074569  0.67527688  0.02217380    -0.04980
C364        C  0.34221142  0.65549069  0.02589108     0.07240
C365        C  0.37486607  0.67570109  0.03387864     0.01030
H366        H  0.30616096  0.66806122  0.01579448     0.08690
H367        H  0.39207724  0.66886574  0.03768673     0.07760
N368        N  0.35884247  0.79065249  0.03097001    -0.36070
N369        N  0.38627873  0.81816102  0.03904645    -0.28250
C370        C  0.38094773  0.84196334  0.03989809    -0.03490
C371        C  0.34846538  0.82892805  0.03135549     0.05120
C372        C  0.33535332  0.79620643  0.02609009     0.03210
H373        H  0.39963099  0.86675111  0.04676705     0.08320
H374        H  0.31058665  0.77760159  0.01853402     0.07150
N375        N  0.80134390  0.95355580  0.08842848    -0.27240
N376        N  0.82908625  0.97751331  0.06936829    -0.35100
C377        C  0.85301833  0.97903421  0.09817279     0.01100
C378        C  0.83935032  0.95463770  0.13630244     0.07130
C379        C  0.80677816  0.93918853  0.12863328    -0.05970
H380        H  0.87831316  0.99603765  0.09107957     0.07800
H381        H  0.78811423  0.91878576  0.15093022     0.09000
Cu382      Cu  0.83226498  0.00567323  0.00342135     0.44170
Cu383      Cu  0.75569881  0.93921018  0.06348316     0.41990
Cu384      Cu  0.75104541  0.98081541  0.95833958     0.43880
N385        N  0.82272924  0.02607193  0.93790191    -0.34620
N386        N  0.79318787  0.01661919  0.92360951    -0.28880
C387        C  0.79421214  0.03437836  0.88220275    -0.04980
C388        C  0.82574844  0.05611921  0.86887464     0.07240
C389        C  0.84344070  0.05028501  0.90483871     0.01030
H390        H  0.77327790  0.03175906  0.86339694     0.08690
H391        H  0.86927815  0.06313675  0.90763583     0.07760
N392        N  0.71007554  0.94491075  0.99581829    -0.36070
N393        N  0.71167033  0.92874828  0.03632168    -0.28250
C394        C  0.68179194  0.90707105  0.05366716    -0.03490
C395        C  0.66021465  0.90988203  0.02246992     0.05120
C396        C  0.67923604  0.93412355  0.98590449     0.03210
H397        H  0.67625991  0.89079710  0.08694868     0.08320
H398        H  0.67147156  0.94303615  0.95378038     0.07150
O399        O  0.88850833  0.16320320  0.69420061    -0.72890
O400        O  0.86516604  0.09650137  0.80946406    -0.73870
O401        O  0.86519482  0.09664246  0.69325262    -0.62490
O402        O  0.88837253  0.16303551  0.80915356    -0.70900
O403        O  0.83867689  0.15214009  0.80803400    -0.70460
O404        O  0.81576962  0.08636370  0.69475037    -0.61710
O405        O  0.81568500  0.08606482  0.80808176    -0.74220
O406        O  0.83888430  0.15249571  0.69570158    -0.73000
Cu407      Cu  0.87868923  0.13028538  0.75150965     1.04560
Cu408      Cu  0.82558784  0.11879015  0.75163761     1.04330
C409        C  0.86744690  0.16849004  0.67746466     0.93310
C410        C  0.83632824  0.08080936  0.82693759     0.92440
C411        C  0.83639027  0.08108971  0.67573668     0.84590
C412        C  0.86720140  0.16812262  0.82625097     0.90860
O413        O  0.91562770  0.92985597  0.19257821    -0.72890
O414        O  0.88340458  0.96397308  0.30916294    -0.73870
O415        O  0.91610313  0.93061449  0.30948925    -0.62490
O416        O  0.88302907  0.96336115  0.19240282    -0.70900
O417        O  0.83657735  0.91636800  0.19546059    -0.70460
O418        O  0.86885186  0.88440911  0.30785355    -0.61710
O419        O  0.83701984  0.91687705  0.30757101    -0.74220
O420        O  0.86830797  0.88375677  0.19553085    -0.73000
Cu421      Cu  0.90143550  0.94881511  0.25086638     1.04560
Cu422      Cu  0.85131133  0.89896222  0.25163360     1.04330
C423        C  0.89651058  0.90099809  0.17616947     0.93310
C424        C  0.85460221  0.94527367  0.32605864     0.92440
C425        C  0.89716414  0.90190062  0.32662574     0.84590
C426        C  0.85410780  0.94459668  0.17621819     0.90860
O427        O  0.23313070  0.06050526  0.19319409    -0.72890
O428        O  0.25688391  0.12807617  0.30800449    -0.73870
O429        O  0.25736926  0.12752781  0.19135823    -0.62490
O430        O  0.23262465  0.06102815  0.30847183    -0.70900
O431        O  0.28226710  0.07175405  0.30743114    -0.70460
O432        O  0.30634848  0.13670867  0.19390293    -0.61710
O433        O  0.30600436  0.13757278  0.30643585    -0.74220
O434        O  0.28266002  0.07099693  0.19597241    -0.73000
Cu435      Cu  0.24305315  0.09387693  0.25024741     1.04560
Cu436      Cu  0.29590291  0.10471150  0.25100455     1.04330
C437        C  0.25425532  0.05501571  0.17737596     0.93310
C438        C  0.28578910  0.14347660  0.32509897     0.92440
C439        C  0.28626680  0.14242270  0.17412069     0.84590
C440        C  0.25368648  0.05577157  0.32539885     0.90860
O441        O  0.11449571  0.93365503  0.81024941    -0.72890
O442        O  0.04863152  0.91182648  0.69434001    -0.73870
O443        O  0.04823341  0.91095158  0.81071536    -0.62490
O444        O  0.11491552  0.93443113  0.69516532    -0.70900
O445        O  0.10364740  0.88453996  0.69562194    -0.70460
O446        O  0.03759438  0.86134878  0.80834355    -0.61710
O447        O  0.03790350  0.86217841  0.69483708    -0.74220
O448        O  0.10324114  0.88378302  0.80796574    -0.73000
Cu449      Cu  0.08201913  0.92461142  0.75263789     1.04560
Cu450      Cu  0.07008983  0.87129447  0.75162295     1.04330
C451        C  0.11924430  0.91218171  0.82691068     0.93310
C452        C  0.03301651  0.88313192  0.67615086     0.92440
C453        C  0.03266166  0.88206744  0.82807786     0.84590
C454        C  0.11984168  0.91318406  0.67778469     0.90860
O455        O  0.22359915  0.30249630  0.69194691    -0.72890
O456        O  0.25587118  0.26974349  0.80930035    -0.73870
O457        O  0.22287534  0.30243592  0.80818113    -0.62490
O458        O  0.25633847  0.26963316  0.69305733    -0.70900
O459        O  0.30297246  0.31650514  0.69533154    -0.70460
O460        O  0.26969551  0.34913520  0.80647990    -0.61710
O461        O  0.30222639  0.31690252  0.80813708    -0.74220
O462        O  0.27071565  0.34887990  0.69365134    -0.73000
Cu463      Cu  0.23787659  0.28427883  0.75063660     1.04560
Cu464      Cu  0.28787251  0.33433294  0.75094725     1.04330
C465        C  0.24250317  0.33114017  0.67455995     0.93310
C466        C  0.28447999  0.28852733  0.82675456     0.92440
C467        C  0.24127222  0.33128940  0.82490687     0.84590
C468        C  0.28518560  0.28818327  0.67644672     0.90860
C469        C  0.55671476  0.85279329  0.03615800    -0.05410
C470        C  0.57265947  0.88417852  0.01550833    -0.32840
C471        C  0.60613468  0.90298344  0.01067309     0.36410
C472        C  0.62461843  0.89066771  0.02696540    -0.05770
C473        C  0.60874940  0.85947849  0.04834717    -0.32740
C474        C  0.57523057  0.84056643  0.05278320     0.36310
H475        H  0.55919075  0.89432524  0.00254329     0.16680
O476        O  0.62051068  0.93391734  0.99245450    -0.60240
H477        H  0.62231252  0.84944390  0.06140724     0.16700
O478        O  0.56105825  0.81075482  0.07578154    -0.60340
H479        H  0.56227173  0.79704242  0.04805373     0.43350
H480        H  0.61619738  0.93205702  0.95318007     0.43650
C481        C  0.33097375  0.84559321  0.02831946    -0.05410
C482        C  0.29727932  0.82743842  0.03253330    -0.32840
C483        C  0.27986261  0.84197929  0.02894516     0.36410
C484        C  0.29597807  0.87530185  0.02163286    -0.05770
C485        C  0.32946066  0.89364548  0.01798260    -0.32740
C486        C  0.34698274  0.87914688  0.02069398     0.36310
H487        H  0.28411815  0.80181064  0.03915767     0.16680
O488        O  0.24711022  0.82343742  0.03365798    -0.60240
H489        H  0.34210916  0.91934091  0.01177923     0.16700
O490        O  0.37950404  0.89796199  0.01325272    -0.60340
H491        H  0.38824296  0.90991856  0.04750696     0.43690
H492        H  0.24271105  0.82381879  0.07254251     0.43650
C493        C  0.80666017  0.60499422  0.46572955    -0.05410
C494        C  0.83964837  0.62160846  0.47743231    -0.32840
C495        C  0.85841839  0.65513187  0.48083874     0.36410
C496        C  0.84439350  0.67305003  0.47325669    -0.05770
C497        C  0.81166132  0.65672046  0.46081457    -0.32740
C498        C  0.79281494  0.62314907  0.45722291     0.36310
H499        H  0.85124871  0.60873570  0.48425541     0.16680
O500        O  0.89061480  0.67005217  0.49062277    -0.60240
H501        H  0.80038185  0.66998559  0.45445158     0.16700
O502        O  0.76117314  0.60867025  0.44357772    -0.60340
H503        H  0.75036620  0.60930753  0.47675496     0.43690
H504        H  0.90085386  0.67530229  0.45454330     0.43650
C505        C  0.50622839  0.33312177  0.48734974    -0.05410
C506        C  0.52450943  0.36406048  0.50966763    -0.32840
C507        C  0.55795599  0.38286409  0.50417427     0.36410
C508        C  0.57399769  0.37086736  0.47603745    -0.05770
C509        C  0.55583864  0.33971744  0.45465843    -0.32740
C510        C  0.52240647  0.32093453  0.45996209     0.36310
H511        H  0.51292631  0.37405340  0.53121084     0.16680
O512        O  0.57474995  0.41230068  0.52878795    -0.60240
H513        H  0.56751558  0.32976476  0.43324066     0.16700
O514        O  0.50611291  0.29019446  0.44026834    -0.60340
H515        H  0.50657033  0.29244065  0.40051021     0.43690
H516        H  0.57089395  0.42644501  0.50646149     0.43650
C517        C  0.55705194  0.85515264  0.46982592    -0.05410
C518        C  0.57382935  0.84085962  0.45488006    -0.32840
C519        C  0.60737779  0.85787182  0.45775491     0.36410
C520        C  0.62498866  0.88982976  0.47647345    -0.05770
C521        C  0.60822140  0.90405341  0.49179292    -0.32740
C522        C  0.57472220  0.88718683  0.48837955     0.36310
H523        H  0.56095533  0.81632216  0.44057193     0.16680
O524        O  0.62246841  0.84239406  0.44475074    -0.60240
H525        H  0.62108948  0.92854163  0.50635363     0.16700
O526        O  0.55954707  0.90182918  0.50597296    -0.60340
H527        H  0.56348580  0.91764045  0.47759474     0.43690
H528        H  0.62178031  0.84098966  0.40486324     0.43650
C529        C  0.29786571  0.87739196  0.47752028    -0.05410
C530        C  0.29147625  0.85312242  0.51464994    -0.32840
C531        C  0.30753298  0.83714622  0.51179829     0.36410
C532        C  0.33074316  0.84538033  0.47168933    -0.05770
C533        C  0.33752839  0.86958157  0.43487990    -0.32740
C534        C  0.32121657  0.88533058  0.43701277     0.36310
H535        H  0.27410950  0.84637320  0.54653745     0.16680
O536        O  0.30069969  0.81386243  0.54906510    -0.60240
H537        H  0.35512232  0.87586204  0.40338082     0.16700
O538        O  0.32769518  0.90749167  0.39786312    -0.60340
H539        H  0.34827717  0.92710858  0.40864688     0.43690
H540        H  0.31639594  0.82517909  0.57852169     0.43650
C541        C  0.80597426  0.60392677  0.03892274    -0.05410
C542        C  0.83945512  0.62141899  0.04646969    -0.32840
C543        C  0.85811416  0.65493167  0.04213242     0.36410
C544        C  0.84351630  0.67186976  0.03071382    -0.05770
C545        C  0.81027019  0.65478659  0.02339831    -0.32740
C546        C  0.79155389  0.62118897  0.02671604     0.36310
H547        H  0.85146263  0.60928315  0.05633470     0.16680
O548        O  0.89058831  0.67093409  0.05007900    -0.60240
H549        H  0.79878456  0.66751788  0.01373419     0.16700
O550        O  0.75950519  0.60565364  0.01536068    -0.60340
H551        H  0.74970288  0.60882838  0.04759188     0.43690
H552        H  0.89378862  0.67659833  0.08888123     0.43650
C553        C  0.79796573  0.37752864  0.03276683    -0.05410
C554        C  0.82114362  0.38348766  0.07116998    -0.32840
C555        C  0.83719833  0.36744798  0.06908806     0.36410
C556        C  0.83068522  0.34536782  0.02701915    -0.05770
C557        C  0.80737231  0.33971164  0.98847787    -0.32740
C558        C  0.79101956  0.35538585  0.99131270     0.36310
H559        H  0.82637266  0.40020351  0.10374093     0.16680
O560        O  0.85809959  0.37272232  0.10980288    -0.60240
H561        H  0.80179066  0.32331612  0.95538464     0.16700
O562        O  0.76870595  0.34931822  0.95264606    -0.60340
H563        H  0.78066192  0.36582770  0.92449589     0.43690
H564        H  0.87765058  0.39407733  0.10216964     0.43650
C565        C  0.83265497  0.34771406  0.48121158    -0.05410
C566        C  0.80076461  0.33260239  0.49877829    -0.32840
C567        C  0.78379643  0.34756612  0.49341356     0.36410
C568        C  0.79874701  0.37844307  0.47034067    -0.05770
C569        C  0.83080597  0.39375163  0.45356705    -0.32740
C570        C  0.84771592  0.37872532  0.45867405     0.36310
H571        H  0.78865488  0.30886420  0.51642768     0.16680
O572        O  0.75316999  0.33234539  0.51332778    -0.60240
H573        H  0.84295726  0.41751077  0.43599397     0.16700
O574        O  0.87939837  0.39529813  0.44389482    -0.60340
H575        H  0.87940719  0.39574662  0.40394237     0.43690
H576        H  0.73979138  0.31481064  0.48744005     0.43650
C577        C  0.32366195  0.62034331  0.02065049    -0.05410
C578        C  0.31771204  0.60134725  0.06631268    -0.32840
C579        C  0.29966841  0.56781223  0.06232520     0.36410
C580        C  0.28828523  0.55293601  0.01171194    -0.05770
C581        C  0.29476316  0.57209522  0.96589280    -0.32740
C582        C  0.31180509  0.60558868  0.97031888     0.36310
H583        H  0.32680527  0.61254874  0.10523554     0.16680
O584        O  0.29450139  0.54983354  0.10768341    -0.60240
H585        H  0.28601647  0.56103905  0.92678373     0.16700
O586        O  0.31747733  0.62377187  0.92506827    -0.60340
H587        H  0.29889300  0.62605197  0.92232351     0.43690
H588        H  0.27759618  0.55032995  0.12810367     0.43650
C589        C  0.57321585  0.37078136  0.02689388    -0.05410
C590        C  0.55583066  0.33731946  0.03407343    -0.32840
C591        C  0.52253983  0.31837810  0.02690705     0.36410
C592        C  0.50567854  0.33270093  0.01207667    -0.05770
C593        C  0.52298140  0.36605012  0.00428388    -0.32740
C594        C  0.55629569  0.38505561  0.01178709     0.36310
H595        H  0.56795694  0.32551308  0.04552023     0.16680
O596        O  0.50704450  0.28569920  0.03186849    -0.60240
H597        H  0.51064028  0.37765213  0.99280853     0.16700
O598        O  0.57206033  0.41733352  0.00186887    -0.60340
H599        H  0.56754796  0.42645878  0.03358310     0.43690
H600        H  0.50695522  0.28163265  0.07100612     0.43650
C601        C  0.28830129  0.55246316  0.49119510    -0.05410
C602        C  0.27257464  0.56875597  0.49549346    -0.32840
C603        C  0.28937188  0.60220175  0.49055103     0.36410
C604        C  0.32279474  0.62027788  0.48017240    -0.05770
C605        C  0.33831440  0.60359711  0.47527535    -0.32740
C606        C  0.32147526  0.57016424  0.48122066     0.36310
H607        H  0.24706198  0.55550770  0.50368888     0.16680
O608        O  0.27280669  0.61673447  0.49809451    -0.60240
H609        H  0.36366271  0.61630163  0.46639461     0.16700
O610        O  0.33741074  0.55488545  0.47446601    -0.60340
H611        H  0.34909157  0.55826768  0.50871583     0.43690
H612        H  0.26068868  0.61299723  0.46421386     0.43650
loop_ 
_geom_bond_atom_site_label_1 
_geom_bond_atom_site_label_2 
_geom_bond_distance 
_geom_bond_site_symmetry_2 
_ccdc_geom_bond_type 
N1            N2   1.326       .  A
N1            C5   1.340       .  A
N1           Cu9   2.076       .  S
N2            C3   1.352       .  A
N2           Cu8   2.095       .  S
C3            C4   1.386       .  A
C3            H6   1.082       .  S
C4            C5   1.379       .  A
C4          C465   1.470       .  S
C5            H7   1.082       .  S
Cu8          N11   2.093       .  S
Cu9          N19   2.074       .  S
Cu10         N12   2.055       .  S
Cu10         N18   2.056       .  S
N11          N12   1.323       .  A
N11          C15   1.354       .  A
N12          C13   1.335       .  A
C13          C14   1.376       .  A
C13          H16   1.082       .  S
C14          C15   1.390       .  A
C14         C181   1.470       .  S
C15          H17   1.082       .  S
N18          N19   1.317       .  A
N18          C22   1.343       .  A
N19          C20   1.347       .  A
C20          C21   1.389       .  A
C20          H23   1.082       .  S
C21          C22   1.384       .  A
C21         C601   1.481       .  S
C22          H24   1.082       .  S
N25          N26   1.327       .  A
N25          C29   1.340       .  A
N25         Cu33   2.080       .  S
N26          C27   1.352       .  A
N26         Cu32   2.098       .  S
C27          C28   1.386       .  A
C27          H30   1.082       .  S
C28          C29   1.378       .  A
C28         C466   1.471       .  S
C29          H31   1.082       .  S
Cu32         N35   2.095   1_556  S
Cu33         N43   2.078       .  S
Cu34         N36   2.048       .  S
Cu34         N42   2.049       .  S
N35          N36   1.322       .  A
N35          C39   1.355       .  A
N36          C37   1.334       .  A
C37          C38   1.375       .  A
C37          H40   1.082       .  S
C38          C39   1.391       .  A
C38         C439   1.469       .  S
C39          H41   1.082       .  S
N42          N43   1.316   1_554  A
N42          C46   1.341       .  A
N43          C44   1.348       .  A
C44          C45   1.393   1_556  A
C44          H47   1.082       .  S
C45          C46   1.386       .  A
C45         C592   1.488       .  S
C46          H48   1.081       .  S
N49          N50   1.327       .  A
N49          C53   1.340       .  A
N49         Cu57   2.078       .  S
N50          C51   1.352       .  A
N50         Cu56   2.102       .  S
C51          C52   1.387       .  A
C51          H54   1.082       .  S
C52          C53   1.377       .  A
C52         C467   1.471       .  S
C53          H55   1.082       .  S
Cu56         N59   2.099   1_556  S
Cu57         N67   2.075       .  S
Cu58         N60   2.045       .  S
Cu58         N66   2.046       .  S
N59          N60   1.322       .  A
N59          C63   1.355       .  A
N60          C61   1.334       .  A
C61          C62   1.373       .  A
C61          H64   1.082       .  S
C62          C63   1.392       .  A
C62         C180   1.468       .  S
C63          H65   1.082       .  S
N66          N67   1.317   1_554  A
N66          C70   1.341       .  A
N67          C68   1.348       .  A
C68          C69   1.389   1_556  A
C68          H71   1.082       .  S
C69          C70   1.382       .  A
C69         C580   1.478       .  S
C70          H72   1.082       .  S
N73          N74   1.323       .  A
N73          C77   1.345       .  A
N73         Cu81   2.079       .  S
N74          C75   1.343       .  A
N74         Cu80   2.058       .  S
C75          C76   1.377       .  A
C75          H78   1.082       .  S
C76          C77   1.383       .  A
C76         C409   1.462       .  S
C77          H79   1.082       .  S
Cu80         N83   2.057       .  S
Cu81         N91   2.078       .  S
Cu82         N84   2.061       .  S
Cu82         N90   2.060       .  S
N83          N84   1.321       .  A
N83          C87   1.345       .  A
N84          C85   1.340       .  A
C85          C86   1.380       .  A
C85          H88   1.082       .  S
C86          C87   1.380       .  A
C86         C179   1.459   1_655  S
C87          H89   1.082       .  S
N90          N91   1.320       .  A
N90          C94   1.342       .  A
N91          C92   1.345       .  A
C92          C93   1.389       .  A
C92          H95   1.082       .  S
C93          C94   1.385       .  A
C93         C565   1.484       .  S
C94          H96   1.080       .  S
N97          N98   1.323       .  A
N97         C101   1.345       .  A
N97        Cu105   2.079       .  S
N98          C99   1.342       .  A
N98        Cu104   2.055   1_556  S
C99         C100   1.377       .  A
C99         H102   1.082       .  S
C100        C101   1.383       .  A
C100        C412   1.461       .  S
C101        H103   1.082       .  S
Cu104       N107   2.054       .  S
Cu105       N115   2.078       .  S
Cu106       N108   2.065       .  S
Cu106       N114   2.064       .  S
N107        N108   1.321       .  A
N107        C111   1.346       .  A
N108        C109   1.340       .  A
C109        C110   1.381       .  A
C109        H112   1.082       .  S
C110        C111   1.380       .  A
C110        C182   1.460   1_655  S
C111        H113   1.082       .  S
N114        N115   1.319   1_554  A
N114        C118   1.342       .  A
N115        C116   1.344       .  A
C116        C117   1.393   1_556  A
C116        H119   1.081       .  S
C117        C118   1.390       .  A
C117        C556   1.495       .  S
C118        H120   1.078       .  S
N121        N122   1.320       .  A
N121        C125   1.343       .  A
N121       Cu129   2.069       .  S
N122        C123   1.346       .  A
N122       Cu128   2.083       .  S
C123        C124   1.392       .  A
C123        H126   1.080       .  S
C124        C125   1.388       .  A
C124        C589   1.493       .  S
C125        H127   1.081       .  S
Cu128       N131   2.083       .  S
Cu129       N139   2.069       .  S
Cu130       N132   2.075       .  S
Cu130       N138   2.074       .  S
N131        N132   1.320       .  A
N131        C135   1.345       .  A
N132        C133   1.345       .  A
C133        C134   1.391       .  A
C133        H136   1.081       .  S
C134        C135   1.393       .  A
C134        C541   1.498       .  S
C135        H137   1.079       .  S
N138        N139   1.322       .  A
N138        C142   1.345       .  A
N139        C140   1.344       .  A
C140        C141   1.382       .  A
C140        H143   1.082       .  S
C141        C142   1.383       .  A
C141        C553   1.473       .  S
C142        H144   1.082       .  S
N145        N146   1.325       .  A
N145        C149   1.338       .  A
N145       Cu153   2.071       .  S
N146        C147   1.354       .  A
N146       Cu152   2.097       .  S
C147        C148   1.388       .  A
C147        H150   1.082       .  S
C148        C149   1.378       .  A
C148        C423   1.472       .  S
C149        H151   1.082       .  S
Cu152       N155   2.097   1_554  S
Cu153       N163   2.070       .  S
Cu154       N156   2.061       .  S
Cu154       N162   2.061   1_556  S
N155        N156   1.324       .  A
N155        C159   1.353   1_655  A
N156        C157   1.337       .  A
C157        C158   1.376   1_655  A
C157        H160   1.082       .  S
C158        C159   1.389       .  A
C158        C453   1.470       .  S
C159        H161   1.082       .  S
N162        N163   1.318       .  A
N162        C166   1.345   1_554  A
N163        C164   1.346       .  A
C164        C165   1.386       .  A
C164        H167   1.082       .  S
C165        C166   1.384   1_554  A
C165        C544   1.478       .  S
C166        H168   1.082       .  S
O169       Cu177   2.023       .  S
O169        C179   1.279       .  A
O170       Cu177   2.032       .  S
O170        C180   1.279       .  A
O171       Cu177   2.038       .  S
O171        C181   1.280       .  A
O172       Cu177   2.028       .  S
O172        C182   1.280       .  A
O173       Cu178   1.972       .  S
O173        C182   1.272       .  A
O174       Cu178   1.976       .  S
O174        C181   1.275       .  A
O175       Cu178   1.982       .  S
O175        C180   1.276       .  A
O176       Cu178   1.977       .  S
O176        C179   1.273       .  A
Cu177      Cu178   2.377       .  S
N183        N184   1.323       .  A
N183        C187   1.344       .  A
N183       Cu191   2.080       .  S
N184        C185   1.343       .  A
N184       Cu190   2.056       .  S
C185        C186   1.377       .  A
C185        H188   1.082       .  S
C186        C187   1.383       .  A
C186        C454   1.461       .  S
C187        H189   1.082       .  S
Cu190       N193   2.055       .  S
Cu191       N201   2.079       .  S
Cu192       N194   2.060       .  S
Cu192       N200   2.060       .  S
N193        N194   1.320       .  A
N193        C197   1.345   1_565  A
N194        C195   1.340   1_565  A
C195        C196   1.380       .  A
C195        H198   1.082       .  S
C196        C197   1.380       .  A
C196        C440   1.459       .  S
C197        H199   1.082       .  S
N200        N201   1.318       .  A
N200        C204   1.340       .  A
N201        C202   1.345       .  A
C202        C203   1.394       .  A
C202        H205   1.080       .  S
C203        C204   1.390       .  A
C203        C529   1.496       .  S
C204        H206   1.077       .  S
N207        N208   1.322       .  A
N207        C211   1.345       .  A
N207       Cu215   2.073       .  S
N208        C209   1.346       .  A
N208       Cu214   2.089       .  S
C209        C210   1.390       .  A
C209        H212   1.082       .  S
C210        C211   1.387       .  A
C210        C517   1.491       .  S
C211        H213   1.080       .  S
Cu214       N217   2.089       .  S
Cu215       N225   2.072       .  S
Cu216       N218   2.064       .  S
Cu216       N224   2.063       .  S
N217        N218   1.319       .  A
N217        C221   1.346       .  A
N218        C219   1.342       .  A
C219        C220   1.390       .  A
C219        H222   1.078       .  S
C220        C221   1.395       .  A
C220        C604   1.499       .  S
C221        H223   1.081       .  S
N224        N225   1.321       .  A
N224        C228   1.343       .  A
N225        C226   1.345       .  A
C226        C227   1.383       .  A
C226        H229   1.082       .  S
C227        C228   1.381       .  A
C227        C532   1.473       .  S
C228        H230   1.082       .  S
N231        N232   1.325       .  A
N231        C235   1.337       .  A
N231       Cu239   2.067       .  S
N232        C233   1.355       .  A
N232       Cu238   2.100   1_565  S
C233        C234   1.389       .  A
C233        H236   1.082       .  S
C234        C235   1.377       .  A
C234        C424   1.471       .  S
C235        H237   1.082       .  S
Cu238       N241   2.100       .  S
Cu239       N249   2.066       .  S
Cu240       N242   2.062   1_565  S
Cu240       N248   2.062       .  S
N241        N242   1.325       .  A
N241        C245   1.353       .  A
N242        C243   1.338       .  A
C243        C244   1.376       .  A
C243        H246   1.082       .  S
C244        C245   1.389       .  A
C244        C411   1.470       .  S
C245        H247   1.082       .  S
N248        N249   1.316       .  A
N248        C252   1.344       .  A
N249        C250   1.346       .  A
C250        C251   1.390       .  A
C250        H253   1.081       .  S
C251        C252   1.389       .  A
C251        C520   1.489       .  S
C252        H254   1.082       .  S
N255        N256   1.327       .  A
N255        C259   1.341       .  A
N255       Cu263   2.079       .  S
N256        C257   1.352       .  A
N256       Cu262   2.101       .  S
C257        C258   1.386       .  A
C257        H260   1.082       .  S
C258        C259   1.378       .  A
C258        C468   1.470       .  S
C259        H261   1.082       .  S
Cu262       N265   2.098       .  S
Cu263       N273   2.076       .  S
Cu264       N266   2.045       .  S
Cu264       N272   2.046       .  S
N265        N266   1.322       .  A
N265        C269   1.355       .  A
N266        C267   1.334       .  A
C267        C268   1.374       .  A
C267        H270   1.082       .  S
C268        C269   1.392       .  A
C268        C438   1.468       .  S
C269        H271   1.082       .  S
N272        N273   1.315       .  A
N272        C276   1.341       .  A
N273        C274   1.347       .  A
C274        C275   1.394       .  A
C274        H277   1.081       .  S
C275        C276   1.387       .  A
C275        C505   1.491       .  S
C276        H278   1.080       .  S
N279        N280   1.320       .  A
N279        C283   1.344       .  A
N279       Cu287   2.074       .  S
N280        C281   1.345       .  A
N280       Cu286   2.079       .  S
C281        C282   1.392       .  A
C281        H284   1.079       .  S
C282        C283   1.391       .  A
C282        C493   1.496       .  S
C283        H285   1.081       .  S
Cu286       N289   2.079       .  S
Cu287       N297   2.074       .  S
Cu288       N290   2.069       .  S
Cu288       N296   2.068       .  S
N289        N290   1.321       .  A
N289        C293   1.345       .  A
N290        C291   1.344       .  A
C291        C292   1.387       .  A
C291        H294   1.082       .  S
C292        C293   1.389       .  A
C292        C508   1.488       .  S
C293        H295   1.080       .  S
N296        N297   1.321       .  A
N296        C300   1.343       .  A
N297        C298   1.344       .  A
C298        C299   1.387       .  A
C298        H301   1.082       .  S
C299        C300   1.386       .  A
C299        C568   1.485       .  S
C300        H302   1.080       .  S
N303        N304   1.325       .  A
N303        C307   1.337       .  A
N303       Cu311   2.067       .  S
N304        C305   1.355       .  A
N304       Cu310   2.104       .  S
C305        C306   1.390       .  A
C305        H308   1.082       .  S
C306        C307   1.376       .  A
C306        C425   1.472       .  S
C307        H309   1.082       .  S
Cu310       N313   2.104       .  S
Cu311       N321   2.066       .  S
Cu312       N314   2.056       .  S
Cu312       N320   2.057       .  S
N313        N314   1.324       .  A
N313        C317   1.354   1_655  A
N314        C315   1.337       .  A
C315        C316   1.375   1_655  A
C315        H318   1.082       .  S
C316        C317   1.391       .  A
C316        C452   1.471       .  S
C317        H319   1.082       .  S
N320        N321   1.316       .  A
N320        C324   1.343       .  A
N321        C322   1.345       .  A
C322        C323   1.389       .  A
C322        H325   1.082       .  S
C323        C324   1.387       .  A
C323        C496   1.485       .  S
C324        H326   1.081       .  S
N327        N328   1.322       .  A
N327        C331   1.344       .  A
N327       Cu335   2.076       .  S
N328        C329   1.343       .  A
N328       Cu334   2.054   1_556  S
C329        C330   1.377       .  A
C329        H332   1.082       .  S
C330        C331   1.383       .  A
C330        C451   1.461       .  S
C331        H333   1.082       .  S
Cu334       N337   2.054       .  S
Cu335       N345   2.076       .  S
Cu336       N338   2.066       .  S
Cu336       N344   2.066       .  S
N337        N338   1.321       .  A
N337        C341   1.345   1_565  A
N338        C339   1.341   1_565  A
C339        C340   1.382       .  A
C339        H342   1.082       .  S
C340        C341   1.379       .  A
C340        C437   1.460       .  S
C341        H343   1.082       .  S
N344        N345   1.322   1_554  A
N344        C348   1.343       .  A
N345        C346   1.345       .  A
C346        C347   1.384   1_556  A
C346        H349   1.082       .  S
C347        C348   1.381       .  A
C347        C484   1.473       .  S
C348        H350   1.082       .  S
N351        N352   1.321       .  A
N351        C355   1.344       .  A
N351       Cu359   2.073       .  S
N352        C353   1.346       .  A
N352       Cu358   2.083       .  S
C353        C354   1.390       .  A
C353        H356   1.080       .  S
C354        C355   1.388       .  A
C354        C469   1.491       .  S
C355        H357   1.082       .  S
Cu358       N361   2.083       .  S
Cu359       N369   2.073       .  S
Cu360       N362   2.069       .  S
Cu360       N368   2.068       .  S
N361        N362   1.323       .  A
N361        C365   1.346       .  A
N362        C363   1.345       .  A
C363        C364   1.380       .  A
C363        H366   1.082       .  S
C364        C365   1.382       .  A
C364        C577   1.471       .  S
C365        H367   1.082       .  S
N368        N369   1.320       .  A
N368        C372   1.342       .  A
N369        C370   1.344       .  A
C370        C371   1.391       .  A
C370        H373   1.079       .  S
C371        C372   1.389       .  A
C371        C481   1.492       .  S
C372        H374   1.081       .  S
N375        N376   1.325       .  A
N375        C379   1.337       .  A
N375       Cu383   2.070       .  S
N376        C377   1.355       .  A
N376       Cu382   2.103   1_565  S
C377        C378   1.389       .  A
C377        H380   1.082       .  S
C378        C379   1.377       .  A
C378        C426   1.472       .  S
C379        H381   1.082       .  S
Cu382       N385   2.103   1_554  S
Cu383       N393   2.069       .  S
Cu384       N386   2.059   1_565  S
Cu384       N392   2.060       .  S
N385        N386   1.324       .  A
N385        C389   1.354       .  A
N386        C387   1.338       .  A
C387        C388   1.375       .  A
C387        H390   1.082       .  S
C388        C389   1.390       .  A
C388        C410   1.471       .  S
C389        H391   1.082       .  S
N392        N393   1.316   1_556  A
N392        C396   1.343       .  A
N393        C394   1.346       .  A
C394        C395   1.391       .  A
C394        H397   1.082       .  S
C395        C396   1.389   1_554  A
C395        C472   1.489       .  S
C396        H398   1.080       .  S
O399       Cu407   2.017       .  S
O399        C409   1.279       .  A
O400       Cu407   2.028       .  S
O400        C410   1.278       .  A
O401       Cu407   2.028       .  S
O401        C411   1.279       .  A
O402       Cu407   2.017       .  S
O402        C412   1.279       .  A
O403       Cu408   1.988       .  S
O403        C412   1.274       .  A
O404       Cu408   1.992       .  S
O404        C411   1.277       .  A
O405       Cu408   1.994       .  S
O405        C410   1.277       .  A
O406       Cu408   1.991       .  S
O406        C409   1.274       .  A
Cu407      Cu408   2.377       .  S
O413       Cu421   2.047       .  S
O413        C423   1.281       .  A
O414       Cu421   2.046       .  S
O414        C424   1.281       .  A
O415       Cu421   2.046       .  S
O415        C425   1.281       .  A
O416       Cu421   2.046       .  S
O416        C426   1.281       .  A
O417       Cu422   1.980       .  S
O417        C426   1.275       .  A
O418       Cu422   1.979       .  S
O418        C425   1.275       .  A
O419       Cu422   1.975       .  S
O419        C424   1.274       .  A
O420       Cu422   1.977       .  S
O420        C423   1.274       .  A
Cu421      Cu422   2.373       .  S
O427       Cu435   2.026       .  S
O427        C437   1.280       .  A
O428       Cu435   2.035       .  S
O428        C438   1.279       .  A
O429       Cu435   2.036       .  S
O429        C439   1.279       .  A
O430       Cu435   2.025       .  S
O430        C440   1.280       .  A
O431       Cu436   1.973       .  S
O431        C440   1.273       .  A
O432       Cu436   1.977       .  S
O432        C439   1.275       .  A
O433       Cu436   1.978       .  S
O433        C438   1.275       .  A
O434       Cu436   1.975       .  S
O434        C437   1.273       .  A
Cu435      Cu436   2.377       .  S
O441       Cu449   2.017       .  S
O441        C451   1.279       .  A
O442       Cu449   2.028       .  S
O442        C452   1.278       .  A
O443       Cu449   2.028       .  S
O443        C453   1.279       .  A
O444       Cu449   2.018       .  S
O444        C454   1.279       .  A
O445       Cu450   1.987       .  S
O445        C454   1.274       .  A
O446       Cu450   1.990       .  S
O446        C453   1.276       .  A
O447       Cu450   1.992       .  S
O447        C452   1.277       .  A
O448       Cu450   1.988       .  S
O448        C451   1.274       .  A
Cu449      Cu450   2.377       .  S
O455       Cu463   2.036       .  S
O455        C465   1.280       .  A
O456       Cu463   2.036       .  S
O456        C466   1.280       .  A
O457       Cu463   2.032       .  S
O457        C467   1.280       .  A
O458       Cu463   2.032       .  S
O458        C468   1.280       .  A
O459       Cu464   1.992       .  S
O459        C468   1.276       .  A
O460       Cu464   1.992       .  S
O460        C467   1.276       .  A
O461       Cu464   1.987       .  S
O461        C466   1.275       .  A
O462       Cu464   1.986       .  S
O462        C465   1.275       .  A
Cu463      Cu464   2.375       .  S
C469        C470   1.406       .  A
C469        C474   1.412       .  A
C470        C471   1.402       .  A
C470        H475   1.082       .  S
C471        C472   1.411       .  A
C471        O476   1.372   1_554  S
C472        C473   1.405       .  A
C473        C474   1.403       .  A
C473        H477   1.083       .  S
C474        O478   1.371       .  S
O476        H480   0.992       .  S
O478        H479   0.992       .  S
C481        C482   1.409       .  A
C481        C486   1.415       .  A
C482        C483   1.398       .  A
C482        H487   1.081       .  S
C483        C484   1.404       .  A
C483        O488   1.372       .  S
C484        C485   1.400       .  A
C485        C486   1.400       .  A
C485        H489   1.084       .  S
C486        O490   1.370       .  S
O488        H492   0.992       .  S
O490        H491   0.992       .  S
C493        C494   1.408       .  A
C493        C498   1.415       .  A
C494        C495   1.400       .  A
C494        H499   1.081       .  S
C495        C496   1.409       .  A
C495        O500   1.371       .  S
C496        C497   1.402       .  A
C497        C498   1.402       .  A
C497        H501   1.083       .  S
C498        O502   1.370       .  S
O500        H504   0.992       .  S
O502        H503   0.992       .  S
C505        C506   1.405       .  A
C505        C510   1.414       .  A
C506        C507   1.402       .  A
C506        H511   1.082       .  S
C507        C508   1.411       .  A
C507        O512   1.371       .  S
C508        C509   1.404       .  A
C509        C510   1.401       .  A
C509        H513   1.083       .  S
C510        O514   1.371       .  S
O512        H516   0.992       .  S
O514        H515   0.992       .  S
C517        C518   1.406       .  A
C517        C522   1.412       .  A
C518        C519   1.403       .  A
C518        H523   1.083       .  S
C519        C520   1.411       .  A
C519        O524   1.371       .  S
C520        C521   1.405       .  A
C521        C522   1.402       .  A
C521        H525   1.083       .  S
C522        O526   1.371       .  S
O524        H528   0.992       .  S
O526        H527   0.992       .  S
C529        C530   1.410       .  A
C529        C534   1.419       .  A
C530        C531   1.399       .  A
C530        H535   1.081       .  S
C531        C532   1.405       .  A
C531        O536   1.372       .  S
C532        C533   1.397       .  A
C533        C534   1.399       .  A
C533        H537   1.084       .  S
C534        O538   1.369       .  S
O536        H540   0.992       .  S
O538        H539   0.992       .  S
C541        C542   1.410       .  A
C541        C546   1.417       .  A
C542        C543   1.401       .  A
C542        H547   1.081       .  S
C543        C544   1.406       .  A
C543        O548   1.372       .  S
C544        C545   1.400       .  A
C545        C546   1.403       .  A
C545        H549   1.084       .  S
C546        O550   1.370       .  S
O548        H552   0.992       .  S
O550        H551   0.992       .  S
C553        C554   1.398       .  A
C553        C558   1.405   1_554  A
C554        C555   1.401       .  A
C554        H559   1.084       .  S
C555        C556   1.418       .  A
C555        O560   1.370       .  S
C556        C557   1.409   1_554  A
C557        C558   1.399       .  A
C557        H561   1.081       .  S
C558        O562   1.372       .  S
O560        H564   0.992       .  S
O562        H563   0.992       .  S
C565        C566   1.404       .  A
C565        C570   1.411       .  A
C566        C567   1.400       .  A
C566        H571   1.083       .  S
C567        C568   1.411       .  A
C567        O572   1.371       .  S
C568        C569   1.404       .  A
C569        C570   1.400       .  A
C569        H573   1.083       .  S
C570        O574   1.372       .  S
O572        H576   0.992       .  S
O574        H575   0.992       .  S
C577        C578   1.400       .  A
C577        C582   1.406   1_554  A
C578        C579   1.401       .  A
C578        H583   1.084       .  S
C579        C580   1.411       .  A
C579        O584   1.372       .  S
C580        C581   1.404   1_554  A
C581        C582   1.401       .  A
C581        H585   1.083       .  S
C582        O586   1.371       .  S
O584        H588   0.992       .  S
O586        H587   0.992       .  S
C589        C590   1.406       .  A
C589        C594   1.413       .  A
C590        C591   1.401       .  A
C590        H595   1.082       .  S
C591        C592   1.411       .  A
C591        O596   1.372       .  S
C592        C593   1.404       .  A
C593        C594   1.403       .  A
C593        H597   1.083   1_554  S
C594        O598   1.370       .  S
O596        H600   0.992       .  S
O598        H599   0.992       .  S
C601        C602   1.400       .  A
C601        C606   1.406       .  A
C602        C603   1.401       .  A
C602        H607   1.084       .  S
C603        C604   1.418       .  A
C603        O608   1.370       .  S
C604        C605   1.410       .  A
C605        C606   1.403       .  A
C605        H609   1.081       .  S
C606        O610   1.371       .  S
O608        H612   0.992       .  S
O610        H611   0.992       .  S
