geometry optimzed in LAMMPS
_audit_creation_date              2020-11-30 
_audit_creation_method            'lammps2cif' 
_symmetry_space_group_name_H-M    'P1' 
_symmetry_Int_Tables_number       1 
_symmetry_cell_setting            triclinic 
loop_ 
_symmetry_equiv_pos_as_xyz 
  x,y,z 
_cell_length_a                    38.979010636996776 
_cell_length_b                    38.31252306214432 
_cell_length_c                    37.81452841159586 
_cell_angle_alpha                 91.27583851866994 
_cell_angle_beta                  89.88676636335859 
_cell_angle_gamma                 90.98852618657057 
loop_ 
_atom_site_label 
_atom_site_type_symbol 
_atom_site_fract_x 
_atom_site_fract_y 
_atom_site_fract_z 
_atom_site_charge 
C1          C  0.77040208  0.73137529  0.72826678     0.03070
C2          C  0.75608868  0.71477172  0.75785867    -0.13080
C3          C  0.72916213  0.73013599  0.77722267     0.00570
C4          C  0.71623111  0.76207768  0.76581452    -0.11610
C5          C  0.72794255  0.77708703  0.73449465     0.03060
C6          C  0.75645882  0.76287788  0.71718071    -0.11030
H7          H  0.76493098  0.68915296  0.76465913     0.08660
H8          H  0.69521151  0.77421510  0.77995851     0.06180
H9          H  0.76663994  0.77536808  0.69388886     0.06030
C10         C  0.13791457  0.73148700  0.18400549     0.03070
C11         C  0.15702733  0.75828269  0.20133230    -0.13080
C12         C  0.18713591  0.77217543  0.18605387     0.00570
C13         C  0.19906987  0.75770905  0.15399315    -0.11610
C14         C  0.18192991  0.72914894  0.13785587     0.03060
C15         C  0.15033323  0.71788420  0.15160512    -0.11030
H16         H  0.14936581  0.76752533  0.22737475     0.08660
H17         H  0.22257266  0.76768467  0.14235478     0.06180
H18         H  0.13642937  0.69694540  0.13789730     0.06030
C19         C  0.73223309  0.13394201  0.73233736     0.03070
C20         C  0.76115265  0.14920869  0.71643208    -0.13080
C21         C  0.77466364  0.18132961  0.72920278     0.00570
C22         C  0.75983183  0.19716103  0.75935654    -0.11610
C23         C  0.73276733  0.18065953  0.77753271     0.03060
C24         C  0.71996627  0.14838738  0.76424190    -0.11030
H25         H  0.77187631  0.13712403  0.69283600     0.08660
H26         H  0.76831204  0.22315662  0.76754162     0.06180
H27         H  0.69863969  0.13557582  0.77737783     0.06030
C28         C  0.13774545  0.18181084  0.71734957     0.03070
C29         C  0.15117209  0.19875586  0.74790878    -0.13080
C30         C  0.18111834  0.18704704  0.76425753     0.00570
C31         C  0.19736294  0.15729918  0.75027451    -0.11610
C32         C  0.18424890  0.13975762  0.72012686     0.03060
C33         C  0.15401534  0.15156271  0.70441646    -0.11030
H34         H  0.13883911  0.22182046  0.75857206     0.08660
H35         H  0.22099633  0.14859825  0.76199089     0.06180
H36         H  0.14352210  0.13726584  0.68180116     0.06030
C37         C  0.13993739  0.72352324  0.73383707     0.03070
C38         C  0.15334478  0.75366080  0.71756919    -0.13080
C39         C  0.18460911  0.76930728  0.72871937     0.00570
C40         C  0.20322914  0.75367943  0.75568848    -0.11610
C41         C  0.19017497  0.72422719  0.77266781     0.03060
C42         C  0.15802923  0.71008530  0.76257453    -0.11030
H43         H  0.13987266  0.76458337  0.69550192     0.08660
H44         H  0.22857752  0.76361188  0.76265250     0.06180
H45         H  0.14759672  0.68816681  0.77686316     0.06030
C46         C  0.73058147  0.18625430  0.13176580     0.03070
C47         C  0.76277493  0.19858996  0.14389023    -0.13080
C48         C  0.77805113  0.18448483  0.17375799     0.00570
C49         C  0.76304302  0.15494684  0.18901707    -0.11610
C50         C  0.73120473  0.14149617  0.17706691     0.03060
C51         C  0.71471355  0.15800529  0.14900773    -0.11030
H52         H  0.77498984  0.22083830  0.13153491     0.08660
H53         H  0.77521268  0.14372702  0.21175550     0.06180
H54         H  0.68878190  0.15011032  0.14190501     0.06030
O55         O  0.49158587  0.49560960  0.08427403    -0.73000
O56         O  0.41593147  0.42270698  0.08265184    -0.73990
O57         O  0.48994540  0.42172865  0.08467574    -0.62600
O58         O  0.41857030  0.49700690  0.08253980    -0.71010
O59         O  0.41925108  0.49384476  0.02385587    -0.70570
O60         O  0.49207767  0.42186330  0.02598040    -0.61820
O61         O  0.41876259  0.42024783  0.02394785    -0.74330
O62         O  0.49195651  0.49462055  0.02544797    -0.73110
Cu63       Cu  0.45388027  0.45919626  0.08565663     1.04560
Cu64       Cu  0.45547282  0.45748841  0.02281213     1.04330
C65         C  0.50369987  0.50627532  0.05495613     0.93190
C66         C  0.40521661  0.41040771  0.05290417     0.92330
C67         C  0.50339010  0.41134255  0.05550469     0.84480
C68         C  0.40746679  0.50693166  0.05267895     0.90750
C69         C  0.25328557  0.26637395  0.03518397     0.03070
C70         C  0.27669698  0.29131755  0.04936072    -0.13080
C71         C  0.29219995  0.31588322  0.02766265     0.00570
C72         C  0.28531696  0.31477823  0.99162661    -0.11610
C73         C  0.26820468  0.28581519  0.97557776     0.03060
C74         C  0.25065412  0.26223980  0.99786780    -0.11030
H75         H  0.28225416  0.29212479  0.07744641     0.08660
H76         H  0.29625626  0.33543399  0.97585173     0.06180
H77         H  0.23554579  0.24083677  0.98654842     0.06030
C78         C  0.26352433  0.65430167  0.03448666     0.03070
C79         C  0.26053517  0.65425324  0.99718782    -0.13080
C80         C  0.28580318  0.63830799  0.97597514     0.00570
C81         C  0.31458597  0.62471246  0.99282898    -0.11610
C82         C  0.31436013  0.61848566  0.02886930     0.03060
C83         C  0.28950661  0.63443266  0.05006915    -0.11030
H84         H  0.23837043  0.66572677  0.98513997     0.08660
H85         H  0.33594270  0.61474188  0.97751262     0.06180
H86         H  0.29004535  0.63080971  0.07838694     0.06030
C87         C  0.65206946  0.26905721  0.03474050     0.03070
C88         C  0.63051370  0.29446068  0.04997693    -0.13080
C89         C  0.61337624  0.31777573  0.02866952     0.00570
C90         C  0.61610474  0.31397950  0.99203653    -0.11610
C91         C  0.63371800  0.28614875  0.97563503     0.03060
C92         C  0.65257769  0.26411889  0.99753672    -0.11030
H93         H  0.62792991  0.29678702  0.07846168     0.08660
H94         H  0.60352402  0.33319057  0.97648903     0.06180
H95         H  0.66775037  0.24339277  0.98607649     0.06030
C96         C  0.65059318  0.65442563  0.03780291     0.03070
C97         C  0.62781923  0.62967074  0.05238635    -0.13080
C98         C  0.61139913  0.60486863  0.03080336     0.00570
C99         C  0.61621083  0.60566381  0.99451531    -0.11610
C100        C  0.63342558  0.63380255  0.97837495     0.03060
C101        C  0.65248426  0.65730124  0.00046274    -0.11030
H102        H  0.62402448  0.62869489  0.08076220     0.08660
H103        H  0.60477500  0.58447327  0.97896753     0.06180
H104        H  0.66879433  0.67714260  0.98897817     0.06030
O105        O  0.49323550  0.41528085  0.82822710    -0.73000
O106        O  0.41874926  0.48613562  0.83355415    -0.73990
O107        O  0.49172372  0.48953721  0.83235789    -0.62600
O108        O  0.42037791  0.41134473  0.83064518    -0.71010
O109        O  0.42254519  0.41024867  0.88926835    -0.70570
O110        O  0.49173307  0.48746635  0.89094940    -0.61820
O111        O  0.41894281  0.48397120  0.89223604    -0.74330
O112        O  0.49419869  0.41387620  0.88696172    -0.73110
Cu113      Cu  0.45588602  0.45071697  0.82907545     1.04560
Cu114      Cu  0.45685314  0.44899431  0.89184881     1.04330
C115        C  0.50512092  0.40321668  0.85679595     0.93190
C116        C  0.40714478  0.49615536  0.86360698     0.92330
C117        C  0.50346354  0.50012974  0.86236574     0.84480
C118        C  0.41123058  0.39781001  0.85993716     0.90750
C119        C  0.25500259  0.25944504  0.87710551     0.03070
C120        C  0.24881159  0.26225896  0.91406722    -0.13080
C121        C  0.27289780  0.27981916  0.93638612     0.00570
C122        C  0.30306828  0.29327061  0.92085717    -0.11610
C123        C  0.30791074  0.29354906  0.88436016     0.03060
C124        C  0.28449583  0.27548291  0.86270458    -0.11030
H125        H  0.22529183  0.25157448  0.92497349     0.08660
H126        H  0.32304005  0.30500403  0.93719679     0.06180
H127        H  0.28910753  0.27413477  0.83443617     0.06030
C128        C  0.26997793  0.65109603  0.87679815     0.03070
C129        C  0.26570841  0.65479319  0.91398179    -0.13080
C130        C  0.28259503  0.63219752  0.93688609     0.00570
C131        C  0.29868568  0.60281192  0.92203737    -0.11610
C132        C  0.30486606  0.59969780  0.88601371     0.03060
C133        C  0.29209906  0.62484882  0.86365651    -0.11030
H134        H  0.24933787  0.67461710  0.92509256     0.08660
H135        H  0.30851652  0.58272982  0.93878109     0.06180
H136        H  0.29847070  0.62297249  0.83580395     0.06030
C137        C  0.65399365  0.26310858  0.87795765     0.03070
C138        C  0.65601559  0.26314471  0.91532673    -0.13080
C139        C  0.63172460  0.28168081  0.93598233     0.00570
C140        C  0.60462455  0.29746378  0.91799877    -0.11610
C141        C  0.60513958  0.30121175  0.88152784     0.03060
C142        C  0.63046835  0.28494235  0.86155767    -0.11030
H143        H  0.67593037  0.24845062  0.92773471     0.08660
H144        H  0.58290931  0.30813643  0.93205536     0.06180
H145        H  0.63045756  0.28738208  0.83304862     0.06030
C146        C  0.65044561  0.65125461  0.87974112     0.03070
C147        C  0.65393668  0.65401652  0.91699812    -0.13080
C148        C  0.62983039  0.63704873  0.93896556     0.00570
C149        C  0.60133062  0.62051726  0.92254298    -0.11610
C150        C  0.60132099  0.61203219  0.88659214     0.03060
C151        C  0.62589009  0.62770856  0.86495572    -0.11030
H152        H  0.67484469  0.66939553  0.92837737     0.08660
H153        H  0.57989592  0.61094385  0.93799473     0.06180
H154        H  0.62569186  0.62211428  0.83673678     0.06030
O155        O  0.49385457  0.02124898  0.48986312    -0.73000
O156        O  0.42100793  0.02518342  0.41564224    -0.73990
O157        O  0.49295192  0.02508865  0.41580076    -0.62600
O158        O  0.42145168  0.02069372  0.49044349    -0.71010
O159        O  0.42132899  0.07844799  0.49607648    -0.70570
O160        O  0.49499982  0.08295980  0.42059812    -0.61820
O161        O  0.42155520  0.08310675  0.42048079    -0.74330
O162        O  0.49399339  0.07908996  0.49580754    -0.73110
Cu163      Cu  0.45721296  0.02111175  0.45284485     1.04560
Cu164      Cu  0.45793831  0.08302410  0.45838961     1.04330
C165        C  0.50541412  0.04945174  0.50443778     0.93190
C166        C  0.41021203  0.05477254  0.40599005     0.92330
C167        C  0.50525971  0.05442476  0.40621523     0.84480
C168        C  0.41005303  0.04841985  0.50522908     0.90750
C169        C  0.25841300  0.03771007  0.26326798     0.03070
C170        C  0.28655115  0.05318782  0.28135396    -0.13080
C171        C  0.31042377  0.03248610  0.29795876     0.00570
C172        C  0.30692612  0.99637401  0.29549862    -0.11610
C173        C  0.27745429  0.98002580  0.28077867     0.03060
C174        C  0.25360758  0.00098214  0.26340519    -0.11030
H175        H  0.28994383  0.08132216  0.28248281     0.08660
H176        H  0.32692998  0.98112624  0.30715496     0.06180
H177        H  0.23106245  0.98918447  0.25107878     0.06030
C178        C  0.65623874  0.04014086  0.26049619     0.03070
C179        C  0.63354531  0.05453492  0.28578378    -0.13080
C180        C  0.61552509  0.03285576  0.30868413     0.00570
C181        C  0.62034426  0.99702395  0.30623807    -0.11610
C182        C  0.63706106  0.98152767  0.27705876     0.03060
C183        C  0.65650802  0.00340335  0.25484929    -0.11030
H184        H  0.62968067  0.08247064  0.28733797     0.08660
H185        H  0.60785145  0.98107911  0.32590448     0.06180
H186        H  0.67134567  0.99220419  0.23333957     0.06030
C187        C  0.26687534  0.03061009  0.65595283     0.03070
C188        C  0.29570019  0.04417451  0.63770280    -0.13080
C189        C  0.32015892  0.02197715  0.62323189     0.00570
C190        C  0.31805967  0.98668657  0.63074244    -0.11610
C191        C  0.28716106  0.97133996  0.64254155     0.03060
C192        C  0.26161394  0.99380233  0.65612755    -0.11030
H193        H  0.29874275  0.07190063  0.63358330     0.08660
H194        H  0.33954750  0.97085269  0.62271727     0.06180
H195        H  0.23757588  0.98304000  0.66564884     0.06030
C196        C  0.65455542  0.03020255  0.64992758     0.03070
C197        C  0.63120469  0.04458549  0.62603102    -0.13080
C198        C  0.60708871  0.02326500  0.60860053     0.00570
C199        C  0.60606323  0.98772570  0.61499985    -0.11610
C200        C  0.63235113  0.97165928  0.63376088     0.03060
C201        C  0.65568648  0.99346372  0.65291785    -0.11030
H202        H  0.63149233  0.07239404  0.62133308     0.08660
H203        H  0.58512803  0.97263590  0.60331296     0.06180
H204        H  0.67432712  0.98222061  0.67018711     0.06030
O205        O  0.49216683  0.89317396  0.42222183    -0.73000
O206        O  0.42432101  0.88441466  0.50036254    -0.73990
O207        O  0.49667534  0.88438361  0.49578897    -0.62600
O208        O  0.42013969  0.89283220  0.42662172    -0.71010
O209        O  0.41842798  0.83535165  0.41778714    -0.70570
O210        O  0.49555423  0.82672938  0.48784487    -0.61820
O211        O  0.42167002  0.82685084  0.49202190    -0.74330
O212        O  0.49168759  0.83584083  0.41316586    -0.73110
Cu213      Cu  0.45834369  0.89059374  0.46155272     1.04560
Cu214      Cu  0.45680603  0.82905840  0.45246605     1.04330
C215        C  0.50313536  0.86629117  0.40556561     0.93190
C216        C  0.41179126  0.85459567  0.50821007     0.92330
C217        C  0.50838472  0.85434799  0.50250440     0.84480
C218        C  0.40742326  0.86569005  0.41103017     0.90750
C219        C  0.25878792  0.88197661  0.26554814     0.03070
C220        C  0.25705765  0.91854733  0.26109557    -0.13080
C221        C  0.27240350  0.94164399  0.28621941     0.00570
C222        C  0.28712236  0.92736672  0.31641558    -0.11610
C223        C  0.29461932  0.89202581  0.31761216     0.03060
C224        C  0.27945541  0.86912715  0.29278118    -0.11030
H225        H  0.24479277  0.92865668  0.23789247     0.08660
H226        H  0.29676051  0.94424765  0.33764711     0.06180
H227        H  0.28431849  0.84146200  0.29422608     0.06030
C228        C  0.65146322  0.88404761  0.25789356     0.03070
C229        C  0.62366548  0.87047292  0.27761798    -0.13080
C230        C  0.59869826  0.89272854  0.29139181     0.00570
C231        C  0.60071543  0.92799395  0.28325822    -0.11610
C232        C  0.63136912  0.94309630  0.27054666     0.03060
C233        C  0.65631708  0.92067537  0.25614261    -0.11030
H234        H  0.62208359  0.84285587  0.28305764     0.08660
H235        H  0.57967223  0.94435423  0.29164006     0.06180
H236        H  0.67973531  0.93129351  0.24493117     0.06030
C237        C  0.25986419  0.87453076  0.65187855     0.03070
C238        C  0.28415812  0.85920324  0.62895891    -0.13080
C239        C  0.30523326  0.88004856  0.60813697     0.00570
C240        C  0.30167052  0.91606798  0.60982464    -0.11610
C241        C  0.28222418  0.93256503  0.63666591     0.03060
C242        C  0.26019781  0.91133730  0.65713723    -0.11030
H243        H  0.28664389  0.83107865  0.62735303     0.08660
H244        H  0.31608209  0.93107887  0.59078727     0.06180
H245        H  0.24361721  0.92303984  0.67690988     0.06030
C246        C  0.65289218  0.87590452  0.65274613     0.03070
C247        C  0.65217718  0.91267995  0.65632295    -0.13080
C248        C  0.63519377  0.93263246  0.63097915     0.00570
C249        C  0.61969487  0.91471783  0.60200283    -0.11610
C250        C  0.61647010  0.87855174  0.60079466     0.03060
C251        C  0.63376256  0.85906073  0.62552434    -0.11030
H252        H  0.66427967  0.92524966  0.67905273     0.08660
H253        H  0.60833396  0.92851134  0.58046204     0.06180
H254        H  0.63200680  0.83082400  0.62366646     0.06030
C255        C  0.72961453  0.72747766  0.14726053     0.03070
C256        C  0.71488116  0.75640243  0.16464228    -0.13080
C257        C  0.73069843  0.77244119  0.19446154     0.00570
C258        C  0.76144022  0.75845066  0.20711145    -0.11610
C259        C  0.77600291  0.72897153  0.19042178     0.03060
C260        C  0.76101552  0.71504909  0.15949407    -0.11030
H261        H  0.69041767  0.76579374  0.15560527     0.08660
H262        H  0.77390713  0.77005425  0.23018209     0.06180
H263        H  0.77280673  0.69298718  0.14615261     0.06030
O264        O  0.08140725  0.49780595  0.49553042    -0.73000
O265        O  0.08132160  0.42396614  0.41769366    -0.73990
O266        O  0.08085679  0.49814600  0.42074874    -0.62600
O267        O  0.08214724  0.42282485  0.49380660    -0.71010
O268        O  0.02526893  0.42021506  0.49188795    -0.70570
O269        O  0.02397305  0.49800525  0.42378887    -0.61820
O270        O  0.02437608  0.42513265  0.41709894    -0.74330
O271        O  0.02446112  0.49415099  0.49758509    -0.73110
Cu272      Cu  0.08353696  0.46055647  0.45704309     1.04560
Cu273      Cu  0.02261992  0.45913612  0.45773107     1.04330
C274        C  0.05272763  0.50806335  0.50805492     0.93190
C275        C  0.05258624  0.41422609  0.40414730     0.92330
C276        C  0.05203090  0.51049618  0.41159184     0.84480
C277        C  0.05364239  0.40950891  0.50414730     0.90750
C278        C  0.03307998  0.26489087  0.25441317     0.03070
C279        C  0.04675923  0.29505472  0.27154949    -0.13080
C280        C  0.02532761  0.31844056  0.28936353     0.00570
C281        C  0.98999783  0.31204723  0.28906188    -0.11610
C282        C  0.97570294  0.28095091  0.27453261     0.03060
C283        C  0.99754490  0.25751346  0.25672623    -0.11030
H284        H  0.07420823  0.30007240  0.27159381     0.08660
H285        H  0.97377686  0.33090078  0.30224834     0.06180
H286        H  0.98732183  0.23307796  0.24593607     0.06030
C287        C  0.03343690  0.65641627  0.26213130     0.03070
C288        C  0.04865073  0.63431213  0.28667376    -0.13080
C289        C  0.02873541  0.60913881  0.30347325     0.00570
C290        C  0.99407685  0.60610406  0.29529271    -0.11610
C291        C  0.97669470  0.63237944  0.27737246     0.03060
C292        C  0.99717754  0.65714094  0.25922837    -0.11030
H293        H  0.07599777  0.63603369  0.29170686     0.08660
H294        H  0.98082436  0.58327359  0.30503279     0.06180
H295        H  0.98560222  0.67599990  0.24230087     0.06030
C296        C  0.03107107  0.25955085  0.64965236     0.03070
C297        C  0.04623012  0.28502841  0.62786478    -0.13080
C298        C  0.02603006  0.30993456  0.61211702     0.00570
C299        C  0.99139202  0.31131217  0.62081796    -0.11610
C300        C  0.97432631  0.28314590  0.63717210     0.03060
C301        C  0.99485487  0.25750262  0.65258539    -0.11030
H302        H  0.07357097  0.28512967  0.62262418     0.08660
H303        H  0.97766741  0.33367881  0.61177590     0.06180
H304        H  0.98315986  0.23574397  0.66609646     0.06030
C305        C  0.02847223  0.65901401  0.65487718     0.03070
C306        C  0.04386180  0.63949886  0.62733252    -0.13080
C307        C  0.02386317  0.62281745  0.60147090     0.00570
C308        C  0.98852276  0.62685687  0.60203048    -0.11610
C309        C  0.97181113  0.64245310  0.63137939     0.03060
C310        C  0.99227378  0.65955733  0.65753417    -0.11030
H311        H  0.07145570  0.63645148  0.62652592     0.08660
H312        H  0.97416556  0.61523273  0.58020658     0.06180
H313        H  0.98048067  0.67190471  0.68041179     0.06030
O314        O  0.88799026  0.48515896  0.41620583    -0.73000
O315        O  0.88588391  0.42235449  0.49848129    -0.73990
O316        O  0.88830769  0.41194865  0.42515692    -0.62600
O317        O  0.88534629  0.49486133  0.49031872    -0.71010
O318        O  0.82837310  0.49158107  0.49146481    -0.70570
O319        O  0.83148428  0.41198736  0.42055076    -0.61820
O320        O  0.82907557  0.41777365  0.49525224    -0.74330
O321        O  0.83108780  0.48659435  0.41587324    -0.73110
Cu322      Cu  0.88880679  0.45372483  0.45749429     1.04560
Cu323      Cu  0.82790145  0.45202629  0.45559600     1.04330
C324        C  0.86011550  0.49617630  0.40317844     0.93190
C325        C  0.85744294  0.40983913  0.50965633     0.92330
C326        C  0.86041990  0.39846528  0.41311468     0.84480
C327        C  0.85659674  0.50546725  0.50220943     0.90750
C328        C  0.88184819  0.25202912  0.26126774     0.03070
C329        C  0.91758023  0.25530092  0.25556995    -0.13080
C330        C  0.93851805  0.27302667  0.28075968     0.00570
C331        C  0.92310400  0.28643746  0.31171996    -0.11610
C332        C  0.88758151  0.28668783  0.31574203     0.03060
C333        C  0.86714454  0.26807737  0.29139717    -0.11030
H334        H  0.92860476  0.24542346  0.23110267     0.08660
H335        H  0.93859173  0.29911727  0.33212296     0.06180
H336        H  0.83957826  0.26728286  0.29521817     0.06030
C337        C  0.88051576  0.64541683  0.25606401     0.03070
C338        C  0.86667315  0.61811710  0.27655375    -0.13080
C339        C  0.88690369  0.60160237  0.30116013     0.00570
C340        C  0.92136853  0.61086372  0.30381467    -0.11610
C341        C  0.93788613  0.63191190  0.27858410     0.03060
C342        C  0.91664399  0.65128478  0.25616986    -0.11030
H343        H  0.83975300  0.61080511  0.27462367     0.08660
H344        H  0.93509116  0.60031325  0.32581956     0.06180
H345        H  0.92780034  0.67137695  0.24001866     0.06030
C346        C  0.87850236  0.26222850  0.65584293     0.03070
C347        C  0.86354918  0.28655283  0.63344779    -0.13080
C348        C  0.88380540  0.30552920  0.61025101     0.00570
C349        C  0.91899098  0.30053730  0.60956269    -0.11610
C350        C  0.93566831  0.28090255  0.63524714     0.03060
C351        C  0.91479641  0.26023407  0.65758973    -0.11030
H352        H  0.83604034  0.29027046  0.63364711     0.08660
H353        H  0.93306194  0.31330639  0.58875423     0.06180
H354        H  0.92631993  0.24250613  0.67574594     0.06030
C355        C  0.87592823  0.65658634  0.65161362     0.03070
C356        C  0.91207567  0.66141102  0.65267968    -0.13080
C357        C  0.93362588  0.63753407  0.63471915     0.00570
C358        C  0.91808471  0.60854770  0.61729605    -0.11610
C359        C  0.88289625  0.60678147  0.61161660     0.03060
C360        C  0.86168918  0.62976247  0.62987946    -0.11030
H361        H  0.92301068  0.68390793  0.66663406     0.08660
H362        H  0.93328251  0.58804852  0.60537022     0.06180
H363        H  0.83415293  0.62713781  0.62653860     0.06030
C364        C  0.18121599  0.13786145  0.18495659     0.03070
C365        C  0.19704491  0.15444884  0.15607086    -0.13080
C366        C  0.18152136  0.18306635  0.13997041     0.00570
C367        C  0.15061248  0.19568972  0.15429260    -0.11610
C368        C  0.13589796  0.18094657  0.18442874     0.03060
C369        C  0.15031987  0.15105423  0.19842000    -0.11030
H370        H  0.22218070  0.14621768  0.14738407     0.08660
H371        H  0.13893492  0.21845888  0.14322355     0.06180
H372        H  0.13841903  0.13919356  0.22124398     0.06030
C373        C  0.84727485  0.36695634  0.35686436    -0.09220
C374        C  0.86198361  0.36687963  0.39056920     0.06980
C375        C  0.88022869  0.33753868  0.40128469    -0.02980
C376        C  0.88517852  0.30966687  0.37751601    -0.07430
C377        C  0.87294548  0.31085855  0.34266085     0.06090
C378        C  0.85305340  0.33955988  0.33265581    -0.02460
Br379      Br  0.83722603  0.34562096  0.28517099    -0.02150
H380        H  0.83333094  0.38955395  0.34848567     0.10010
H381        H  0.90052378  0.28791396  0.38556526     0.08020
Br382      Br  0.89964486  0.33466044  0.44776999    -0.02580
C383        C  0.84202326  0.35249307  0.53501879    -0.09220
C384        C  0.85809231  0.38544352  0.53897439     0.06980
C385        C  0.87835538  0.39293631  0.56903936    -0.02980
C386        C  0.88368907  0.36709348  0.59358515    -0.07430
C387        C  0.86994443  0.33330918  0.58832820     0.06090
C388        C  0.84819486  0.32619962  0.55928369    -0.02460
Br389      Br  0.82983698  0.28025768  0.54946908    -0.02150
H390        H  0.82674410  0.34641777  0.51170626     0.10010
H391        H  0.90044105  0.37276853  0.61590911     0.08020
Br392      Br  0.90068631  0.43748941  0.57721083    -0.02580
C393        C  0.84377436  0.55192319  0.37541260    -0.09220
C394        C  0.86208593  0.52063446  0.37362261     0.06980
C395        C  0.88488982  0.51479401  0.34523650    -0.02980
C396        C  0.89036779  0.54067581  0.32040593    -0.07430
C397        C  0.87389257  0.57289834  0.32340002     0.06090
C398        C  0.84980544  0.57821920  0.35074771    -0.02460
Br399      Br  0.82752411  0.62207896  0.35775778    -0.02150
H400        H  0.82639881  0.55682329  0.39729380     0.10010
H401        H  0.90892397  0.53627853  0.29945616     0.08020
Br402      Br  0.90973336  0.47215810  0.33928444    -0.02580
C403        C  0.87518551  0.56438223  0.52137676    -0.09220
C404        C  0.85676128  0.53380633  0.52887175     0.06980
C405        C  0.84284539  0.52930978  0.56296720    -0.02980
C406        C  0.84968840  0.55439010  0.58970539    -0.07430
C407        C  0.86993630  0.58399130  0.58255228     0.06090
C408        C  0.88140778  0.58963345  0.54769942    -0.02460
Br409      Br  0.90668165  0.63097689  0.53484995    -0.02150
H410        H  0.88563146  0.56816479  0.49512144     0.10010
H411        H  0.84077617  0.54991265  0.61640333     0.08020
Br412      Br  0.81750964  0.48790317  0.57513514    -0.02580
C413        C  0.08623609  0.23026779  0.25538754    -0.09220
C414        C  0.05691666  0.24013072  0.23685643     0.06980
C415        C  0.05283965  0.22871496  0.20133028    -0.02980
C416        C  0.07811482  0.20824342  0.18506806    -0.07430
C417        C  0.10787898  0.19925583  0.20342708     0.06090
C418        C  0.11183162  0.21071442  0.23896527    -0.02460
Br419      Br  0.15319793  0.20439694  0.26544546    -0.02150
H420        H  0.08994234  0.23906761  0.28257183     0.10010
H421        H  0.07504923  0.20021623  0.15758501     0.08020
Br422      Br  0.01519385  0.24297817  0.17270550    -0.02580
C423        C  0.06092847  0.33632549  0.34134836    -0.09220
C424        C  0.03919906  0.34608381  0.31372054     0.06980
C425        C  0.02586888  0.38008605  0.31424133    -0.02980
C426        C  0.03160011  0.40222169  0.34354898    -0.07430
C427        C  0.05127886  0.39151004  0.37224206     0.06090
C428        C  0.06714969  0.35881885  0.37045357    -0.02460
Br429      Br  0.09406307  0.34215197  0.40877474    -0.02150
H430        H  0.07111120  0.31019626  0.34155541     0.10010
H431        H  0.02001143  0.42774551  0.34428288     0.08020
Br432      Br  0.99905265  0.39731009  0.27601045    -0.02580
C433        C  0.02927772  0.35342604  0.52368451    -0.09220
C434        C  0.05248871  0.38114397  0.53004488     0.06980
C435        C  0.07115554  0.38236772  0.56208148    -0.02980
C436        C  0.06381260  0.35790077  0.58838159    -0.07430
C437        C  0.03870123  0.33168215  0.58270519     0.06090
C438        C  0.02281372  0.32851908  0.54924021    -0.02460
Br439      Br  0.99172093  0.29069824  0.53696222    -0.02150
H440        H  0.01555717  0.35146231  0.49879202     0.10010
H441        H  0.07658549  0.36027451  0.61375623     0.08020
Br442      Br  0.10484646  0.41818508  0.57235457    -0.02580
C443        C  0.07107874  0.53820372  0.35583412    -0.09220
C444        C  0.05065367  0.53920954  0.38648591     0.06980
C445        C  0.02716584  0.56641982  0.39138792    -0.02980
C446        C  0.02310091  0.59072123  0.36501460    -0.07430
C447        C  0.04130316  0.58812623  0.33300104     0.06090
C448        C  0.06629083  0.56221126  0.32888411    -0.02460
Br449      Br  0.09196639  0.55615105  0.28608237    -0.02150
H450        H  0.08926511  0.51740389  0.35186345     0.10010
H451        H  0.00403943  0.61076674  0.36867458     0.08020
Br452      Br  0.99926906  0.57157585  0.43311356    -0.02580
C453        C  0.03815256  0.56102391  0.59169636    -0.09220
C454        C  0.03801528  0.59499121  0.57852465     0.06980
C455        C  0.04570242  0.60028400  0.54269730    -0.02980
C456        C  0.05302506  0.57160014  0.52050722    -0.07430
C457        C  0.05159358  0.53752189  0.53341859     0.06090
C458        C  0.04427905  0.53231354  0.56930113    -0.02460
Br459      Br  0.03997197  0.48643399  0.58818769    -0.02150
H460        H  0.03136657  0.55667723  0.61907705     0.10010
H461        H  0.05793323  0.57571380  0.49268086     0.08020
Br462      Br  0.04390128  0.64572841  0.52268010    -0.02580
C463        C  0.83478271  0.70282930  0.18898987    -0.09220
C464        C  0.80418323  0.70985373  0.20741856     0.06980
C465        C  0.79920893  0.69504777  0.24074308    -0.02980
C466        C  0.82549418  0.67700449  0.25655200    -0.07430
C467        C  0.85594610  0.66899938  0.23826960     0.06090
C468        C  0.86018932  0.68179982  0.20363671    -0.02460
Br469      Br  0.89750666  0.66844629  0.17337998    -0.02150
H470        H  0.83824156  0.71247137  0.16248298     0.10010
H471        H  0.82103080  0.66741272  0.28291730     0.08020
Br472      Br  0.75518404  0.69222577  0.26311356    -0.02580
C473        C  0.70194342  0.83016064  0.19080092    -0.09220
C474        C  0.71432376  0.80336769  0.21204159     0.06980
C475        C  0.70846066  0.80589520  0.24898721    -0.02980
C476        C  0.69018712  0.83383540  0.26341557    -0.07430
C477        C  0.67634526  0.85935129  0.24197611     0.06090
C478        C  0.68286152  0.85771063  0.20531531    -0.02460
Br479      Br  0.66350075  0.89027072  0.17343606    -0.02150
H480        H  0.70610873  0.82903294  0.16246534     0.10010
H481        H  0.68517507  0.83469097  0.29162747     0.08020
Br482      Br  0.72033694  0.77077968  0.28164034    -0.02580
C483        C  0.35032103  0.84819501  0.38610373    -0.09220
C484        C  0.37982070  0.86980379  0.38502439     0.06980
C485        C  0.38186398  0.89637263  0.36000438    -0.02980
C486        C  0.35428122  0.90175483  0.33763311    -0.07430
C487        C  0.32378557  0.88176891  0.34005825     0.06090
C488        C  0.32211653  0.85427879  0.36417813    -0.02460
Br489      Br  0.28134182  0.82635646  0.37032896    -0.02150
H490        H  0.34862749  0.82749298  0.40506810     0.10010
H491        H  0.35647006  0.92229300  0.31846680     0.08020
Br492      Br  0.42195191  0.92568794  0.35438219    -0.02580
C493        C  0.39329313  0.86871964  0.56909158    -0.09220
C494        C  0.38550515  0.85317476  0.53615934     0.06980
C495        C  0.35155690  0.84177364  0.52908023    -0.02980
C496        C  0.32561203  0.84808427  0.55408678    -0.07430
C497        C  0.33320134  0.86563221  0.58613015     0.06090
C498        C  0.36758282  0.87472017  0.59409736    -0.02460
Br499      Br  0.38040257  0.89727928  0.63809205    -0.02150
H500        H  0.41930158  0.87755788  0.57481088     0.10010
H501        H  0.29922321  0.84139727  0.54755536     0.08020
Br502      Br  0.33866156  0.82154365  0.48415930    -0.02580
C503        C  0.57661737  0.90349396  0.35174887    -0.09220
C504        C  0.57542180  0.88253556  0.32079739     0.06980
C505        C  0.55165253  0.85442864  0.31887492    -0.02980
C506        C  0.52903376  0.84859984  0.34728008    -0.07430
C507        C  0.52918218  0.87095259  0.37738999     0.06090
C508        C  0.55365003  0.89853815  0.37942707    -0.02460
Br509      Br  0.55790975  0.93072297  0.41907447    -0.02150
H510        H  0.59537123  0.92460677  0.35419800     0.10010
H511        H  0.51033405  0.82741425  0.34517817     0.08020
Br512      Br  0.54729168  0.82509790  0.27736378    -0.02580
C513        C  0.52982744  0.85388904  0.56385908    -0.09220
C514        C  0.53696504  0.85217302  0.52757922     0.06980
C515        C  0.57129225  0.85368825  0.51595248    -0.02980
C516        C  0.59781321  0.85924652  0.54051323    -0.07430
C517        C  0.59049550  0.86278526  0.57672374     0.06090
C518        C  0.55629505  0.85900781  0.58842664    -0.02460
Br519      Br  0.54417082  0.86468531  0.63741596    -0.02150
H520        H  0.50345346  0.85311419  0.57297735     0.10010
H521        H  0.62391547  0.86281537  0.53120717     0.08020
Br522      Br  0.58277864  0.85096506  0.46668451    -0.02580
C523        C  0.22970620  0.05541507  0.20770097    -0.09220
C524        C  0.23468573  0.06056852  0.24422885     0.06980
C525        C  0.21980903  0.08972139  0.26126452    -0.02980
C526        C  0.20263756  0.11425983  0.24145146    -0.07430
C527        C  0.19889340  0.11011314  0.20461673     0.06090
C528        C  0.21174858  0.07969531  0.18792693    -0.02460
Br529      Br  0.20422905  0.06910220  0.13876982    -0.02150
H530        H  0.24056482  0.03285738  0.19433544     0.10010
H531        H  0.19246918  0.13701021  0.25500478     0.08020
Br532      Br  0.22122782  0.09688114  0.31171109    -0.02580
C533        C  0.32601466  0.05714270  0.35679047    -0.09220
C534        C  0.33651825  0.04721778  0.32250843     0.06980
C535        C  0.37170546  0.04358489  0.31531823    -0.02980
C536        C  0.39560156  0.04815843  0.34260932    -0.07430
C537        C  0.38493235  0.05586557  0.37727529     0.06090
C538        C  0.34996074  0.06128949  0.38419942    -0.02460
Br539      Br  0.33358080  0.07085797  0.43121351    -0.02150
H540        H  0.29891436  0.05910213  0.36280924     0.10010
H541        H  0.42248367  0.04447939  0.33699129     0.08020
Br542      Br  0.38789929  0.03012478  0.26916113    -0.02580
C543        C  0.33776877  0.01293581  0.56114712    -0.09220
C544        C  0.34190213  0.03240463  0.59284431     0.06980
C545        C  0.36641898  0.05982709  0.59423512    -0.02980
C546        C  0.38728333  0.06614718  0.56461894    -0.07430
C547        C  0.38438717  0.04506858  0.53375535     0.06090
C548        C  0.35876461  0.01870627  0.53201605    -0.02460
Br549      Br  0.35067223  0.98969258  0.49060417    -0.02150
H550        H  0.31826663  0.99246933  0.55921717     0.10010
H551        H  0.40693274  0.08644253  0.56634421     0.08020
Br552      Br  0.37422773  0.08730413  0.63649847    -0.02580
C553        C  0.56320301  0.07203015  0.38427865    -0.09220
C554        C  0.53167788  0.05452248  0.37837580     0.06980
C555        C  0.52732765  0.03364361  0.34754065    -0.02980
C556        C  0.55433358  0.02992400  0.32380065    -0.07430
C557        C  0.58664054  0.04519472  0.33079349     0.06090
C558        C  0.59091777  0.06696165  0.36102277    -0.02460
Br559      Br  0.63468053  0.08684259  0.37374047    -0.02150
H560        H  0.56701703  0.08761297  0.40825591     0.10010
H561        H  0.55073602  0.01304977  0.30065237     0.08020
Br562      Br  0.48581714  0.00783036  0.33706255    -0.02580
C563        C  0.56282620  0.02995803  0.52100294    -0.09220
C564        C  0.53291231  0.04744280  0.53070721     0.06980
C565        C  0.52933236  0.06089599  0.56549641    -0.02980
C566        C  0.55502864  0.05514897  0.59050324    -0.07430
C567        C  0.58430877  0.03632528  0.58101453     0.06090
C568        C  0.58855151  0.02459995  0.54571277    -0.02460
Br569      Br  0.62851837  0.99976962  0.53038294    -0.02150
H570        H  0.56591139  0.01987549  0.49419093     0.10010
H571        H  0.55130130  0.06364859  0.61773745     0.08020
Br572      Br  0.48839513  0.08385342  0.58087359    -0.02580
C573        C  0.35664055  0.36823450  0.84161023    -0.09220
C574        C  0.38747263  0.36748869  0.86056605     0.06980
C575        C  0.39367980  0.33909760  0.88266694    -0.02980
C576        C  0.36888234  0.31277568  0.88620607    -0.07430
C577        C  0.33658529  0.31517992  0.87017432     0.06090
C578        C  0.33084883  0.34290445  0.84689805    -0.02460
Br579      Br  0.28706258  0.35072535  0.82559036    -0.02150
H580        H  0.35147067  0.39013456  0.82489476     0.10010
H581        H  0.37382695  0.29166589  0.90401201     0.08020
Br582      Br  0.43441111  0.33568370  0.91078808    -0.02580
C583        C  0.52029351  0.34158567  0.86272205    -0.09220
C584        C  0.53080143  0.37575914  0.85533002     0.06980
C585        C  0.56580709  0.38341817  0.85004273    -0.02980
C586        C  0.59004633  0.35749077  0.85527658    -0.07430
C587        C  0.57960743  0.32398910  0.86565925     0.06090
C588        C  0.54437270  0.31571336  0.86798559    -0.02460
Br589      Br  0.52814353  0.27006107  0.88056295    -0.02150
H590        H  0.49332524  0.33531093  0.86563335     0.10010
H591        H  0.61712366  0.36415691  0.85369248     0.08020
Br592      Br  0.58162322  0.42939958  0.83839674    -0.02580
C593        C  0.34729925  0.51205819  0.87743767    -0.09220
C594        C  0.37987672  0.52208332  0.86527812     0.06980
C595        C  0.38613484  0.55690537  0.85569985    -0.02980
C596        C  0.36027585  0.58154713  0.85983731    -0.07430
C597        C  0.32807174  0.57191141  0.87347514     0.06090
C598        C  0.32133787  0.53658091  0.88128577    -0.02460
Br599      Br  0.27728699  0.52075821  0.89791046    -0.02150
H600        H  0.34218354  0.48516321  0.88435151     0.10010
H601        H  0.36600342  0.60869252  0.85445581     0.08020
Br602      Br  0.43053087  0.57261757  0.84017493    -0.02580
C603        C  0.52964202  0.55682876  0.84379791    -0.09220
C604        C  0.53102334  0.52695606  0.86465098     0.06980
C605        C  0.55787230  0.52409869  0.88929416    -0.02980
C606        C  0.58178654  0.55121238  0.89351532    -0.07430
C607        C  0.57909006  0.58223799  0.87470993     0.06090
C608        C  0.55308556  0.58472129  0.84909335    -0.02460
Br609      Br  0.54629414  0.62645068  0.82332531    -0.02150
H610        H  0.50914682  0.55932575  0.82477774     0.10010
H611        H  0.60187651  0.54873953  0.91304765     0.08020
Br612      Br  0.56332156  0.48422186  0.91867186    -0.02580
C613        C  0.68920019  0.65547740  0.08961399    -0.09220
C614        C  0.67354050  0.67433480  0.06274536     0.06980
C615        C  0.67737802  0.71103782  0.06324451    -0.02980
C616        C  0.69655700  0.72784673  0.09029394    -0.07430
C617        C  0.71114216  0.70883822  0.11780629     0.06090
C618        C  0.70657783  0.67219056  0.11748882    -0.02460
Br619      Br  0.71906342  0.64338357  0.15632323    -0.02150
H620        H  0.68631531  0.62729898  0.08999558     0.10010
H621        H  0.69931921  0.75602950  0.09034620     0.08020
Br622      Br  0.65453587  0.73976742  0.03005638    -0.02580
C623        C  0.23143567  0.20820858  0.05626322    -0.09220
C624        C  0.23281791  0.24476710  0.06012809     0.06980
C625        C  0.21581890  0.26050090  0.08926141    -0.02980
C626        C  0.20032495  0.23986754  0.11489020    -0.07430
C627        C  0.19933142  0.20324425  0.11165391     0.06090
C628        C  0.21449109  0.18748564  0.08135534    -0.02460
Br629      Br  0.21105811  0.13830309  0.07134049    -0.02150
H630        H  0.24377000  0.19566008  0.03378112     0.10010
H631        H  0.18874376  0.25281698  0.13757634     0.08020
Br632      Br  0.21074806  0.31020738  0.09469800    -0.02580
C633        C  0.34265320  0.39805253  0.05238539    -0.09220
C634        C  0.37623078  0.38539377  0.05156019     0.06980
C635        C  0.38148113  0.34949666  0.04597961    -0.02980
C636        C  0.35333780  0.32679707  0.04117744    -0.07430
C637        C  0.31982882  0.33955170  0.04068475     0.06090
C638        C  0.31450853  0.37546395  0.04638197    -0.02460
Br639      Br  0.26956581  0.39481454  0.04387013    -0.02150
H640        H  0.33843481  0.42576817  0.05609666     0.10010
H641        H  0.35771266  0.29934366  0.03570208     0.08020
Br642      Br  0.42659224  0.33071968  0.04226552    -0.02580
C643        C  0.56237233  0.40034256  0.03543935    -0.09220
C644        C  0.53391199  0.38910265  0.05512582     0.06980
C645        C  0.53518912  0.35686762  0.07223325    -0.02980
C646        C  0.56283638  0.33459765  0.06568542    -0.07430
C647        C  0.58998017  0.34470725  0.04336585     0.06090
C648        C  0.59064769  0.37898115  0.03035415    -0.02460
Br649      Br  0.62935704  0.39790872  0.00515654    -0.02150
H650        H  0.56244049  0.42584359  0.02357511     0.10010
H651        H  0.56211729  0.30860701  0.07639376     0.08020
Br652      Br  0.49895815  0.34105653  0.10251015    -0.02580
C653        C  0.38454373  0.56520473  0.07077098    -0.09220
C654        C  0.38088472  0.53379572  0.05099011     0.06980
C655        C  0.35291219  0.52947054  0.02773363    -0.02980
C656        C  0.33026795  0.55672999  0.02338293    -0.07430
C657        C  0.33528233  0.58911667  0.04097426     0.06090
C658        C  0.36223768  0.59307013  0.06550090    -0.02460
Br659      Br  0.37134086  0.63669985  0.08968373    -0.02150
H660        H  0.40587740  0.56877169  0.08886535     0.10010
H661        H  0.30933853  0.55317693  0.00473218     0.08020
Br662      Br  0.34432735  0.48706833  0.00083660    -0.02580
C663        C  0.55282702  0.59158381  0.05164003    -0.09220
C664        C  0.58610293  0.57981197  0.04477534     0.06980
C665        C  0.59250947  0.54376317  0.04425507    -0.02980
C666        C  0.56545369  0.52000758  0.04943497    -0.07430
C667        C  0.53197343  0.53182335  0.05476538     0.06090
C668        C  0.52570984  0.56781285  0.05630706    -0.02460
Br669      Br  0.48016125  0.58539396  0.06132957    -0.02150
H670        H  0.54755106  0.61924210  0.05100272     0.10010
H671        H  0.57029437  0.49224315  0.04789927     0.08020
Br672      Br  0.63733253  0.52597692  0.03450572    -0.02580
C673        C  0.83627093  0.18459446  0.20162782    -0.09220
C674        C  0.80695449  0.20305683  0.19203153     0.06980
C675        C  0.80402255  0.23822135  0.20351332    -0.02980
C676        C  0.83003904  0.25409641  0.22367953    -0.07430
C677        C  0.85860845  0.23535188  0.23457248     0.06090
C678        C  0.86185540  0.20030886  0.22299270    -0.02460
Br679      Br  0.89862932  0.17173021  0.23844101    -0.02150
H680        H  0.83859558  0.15740815  0.19363106     0.10010
H681        H  0.82698573  0.28093059  0.23259814     0.08020
Br682      Br  0.76326815  0.26487183  0.19724251    -0.02580
C683        C  0.67465064  0.21141069  0.05347465    -0.09220
C684        C  0.67382330  0.24789520  0.05807330     0.06980
C685        C  0.69368812  0.26374950  0.08538565    -0.02980
C686        C  0.71143347  0.24313890  0.10886872    -0.07430
C687        C  0.71163815  0.20657792  0.10507009     0.06090
C688        C  0.69376555  0.19083043  0.07623237    -0.02460
Br689      Br  0.69647946  0.14197879  0.06482769    -0.02150
H690        H  0.66031988  0.19879128  0.03211443     0.10010
H691        H  0.72529270  0.25604964  0.13030044     0.08020
Br692      Br  0.69993497  0.31349677  0.09078690    -0.02580
C693        C  0.67859346  0.06039775  0.20210089    -0.09220
C694        C  0.67780347  0.06411897  0.23911904     0.06980
C695        C  0.69668793  0.09187597  0.25532011    -0.02980
C696        C  0.71322334  0.11670346  0.23462390    -0.07430
C697        C  0.71331222  0.11374581  0.19753086     0.06090
C698        C  0.69664034  0.08447666  0.18135730    -0.02460
Br699      Br  0.69951931  0.07444086  0.13159639    -0.02150
H700        H  0.66494665  0.03881158  0.18918669     0.10010
H701        H  0.72621342  0.13853360  0.24783466     0.08020
Br702      Br  0.70308792  0.09621810  0.30559076    -0.02580
C703        C  0.22116397  0.72402594  0.83068437    -0.09220
C704        C  0.21130332  0.70658266  0.79919264     0.06980
C705        C  0.22305768  0.67267199  0.79259576    -0.02980
C706        C  0.23995132  0.65502315  0.81893879    -0.07430
C707        C  0.24998013  0.67183708  0.85090973     0.06090
C708        C  0.24139590  0.70750943  0.85592029    -0.02460
Br709      Br  0.25925199  0.73670060  0.89373876    -0.02150
H710        H  0.21397602  0.75096409  0.83513242     0.10010
H711        H  0.24616109  0.62802244  0.81348890     0.08020
Br712      Br  0.22221133  0.65131400  0.74634763    -0.02580
C713        C  0.20022680  0.79840281  0.67243768    -0.09220
C714        C  0.19980593  0.79948744  0.70957459     0.06980
C715        C  0.21543020  0.82848089  0.72741330    -0.02980
C716        C  0.23364487  0.85368916  0.70824505    -0.07430
C717        C  0.23590555  0.85116212  0.67124684     0.06090
C718        C  0.21743838  0.82411409  0.65331136    -0.02460
Br719      Br  0.21416611  0.82121959  0.60260385    -0.02150
H720        H  0.18789404  0.77689758  0.65805635     0.10010
H721        H  0.24692174  0.87475500  0.72240843     0.08020
Br722      Br  0.21183872  0.83582108  0.77767378    -0.02580
C723        C  0.07626589  0.65461050  0.69704750    -0.09220
C724        C  0.05139381  0.67549456  0.68196199     0.06980
C725        C  0.05324944  0.71184053  0.68809516    -0.02980
C726        C  0.08093775  0.72662842  0.70725227    -0.07430
C727        C  0.10790777  0.70594279  0.71955043     0.06090
C728        C  0.10460044  0.66916656  0.71472747    -0.02460
Br729      Br  0.13892185  0.63618567  0.72607978    -0.02150
H730        H  0.07503270  0.62657089  0.69247921     0.10010
H731        H  0.08213375  0.75471867  0.71105297     0.08020
Br732      Br  0.02084271  0.74265957  0.66774069    -0.02580
C733        C  0.20541896  0.18864567  0.82558224    -0.09220
C734        C  0.19644156  0.20666917  0.79499773     0.06980
C735        C  0.20406678  0.24278763  0.79361161    -0.02980
C736        C  0.22035581  0.25985548  0.82215040    -0.07430
C737        C  0.23074065  0.24160837  0.85202608     0.06090
C738        C  0.22265038  0.20567501  0.85380886    -0.02460
Br739      Br  0.23751636  0.17791775  0.89231476    -0.02150
H740        H  0.19997526  0.16088875  0.82703257     0.10010
H741        H  0.22688303  0.28734545  0.82007345     0.08020
Br742      Br  0.19722786  0.26958138  0.75192014    -0.02580
C743        C  0.08019649  0.21031474  0.71924676    -0.09220
C744        C  0.10748556  0.19678527  0.69889844     0.06980
C745        C  0.10633613  0.20081531  0.66173657    -0.02980
C746        C  0.07935513  0.21844153  0.64633973    -0.07430
C747        C  0.05379533  0.23421568  0.66690267     0.06090
C748        C  0.05391462  0.22936350  0.70376957    -0.02460
Br749      Br  0.02123722  0.25118656  0.73477146    -0.02150
H750        H  0.08004035  0.20740168  0.74767080     0.10010
H751        H  0.07956557  0.22186063  0.61795823     0.08020
Br752      Br  0.14224286  0.18797698  0.62975730    -0.02580
C753        C  0.20862718  0.07961904  0.72143389    -0.09220
C754        C  0.20354895  0.11071172  0.70332337     0.06980
C755        C  0.21828937  0.11434616  0.66963121    -0.02980
C756        C  0.23519076  0.08649247  0.65348581    -0.07430
C757        C  0.24182267  0.05574615  0.67179673     0.06090
C758        C  0.22828270  0.05258886  0.70642813    -0.02460
Br759      Br  0.23846525  0.01415073  0.73612953    -0.02150
H760        H  0.19834477  0.07691405  0.74788956     0.10010
H761        H  0.24512554  0.08999933  0.62702512     0.08020
Br762      Br  0.22194432  0.15850188  0.64708375    -0.02580
C763        C  0.67778237  0.19907250  0.80497808    -0.09220
C764        C  0.71378476  0.19950433  0.80630222     0.06980
C765        C  0.73013741  0.21873947  0.83409295    -0.02980
C766        C  0.71048714  0.23872884  0.85803368    -0.07430
C767        C  0.67456343  0.23926552  0.85529208     0.06190
C768        C  0.65826646  0.21784524  0.82933872    -0.02460
Br769      Br  0.60920688  0.21188743  0.82629388    -0.02150
H770        H  0.66435175  0.18437071  0.78449218     0.10010
H771        H  0.72332359  0.25428808  0.87846696     0.08020
Br772      Br  0.77872154  0.21730651  0.84192648    -0.02580
C773        C  0.83048373  0.21459397  0.72900779    -0.09220
C774        C  0.80270965  0.19968478  0.70988932     0.06980
C775        C  0.80146855  0.20421217  0.67294400    -0.02980
C776        C  0.82789712  0.22235314  0.65608128    -0.07430
C777        C  0.85499741  0.23835478  0.67522745     0.06090
C778        C  0.85617796  0.23427220  0.71216971    -0.02460
Br779      Br  0.88990573  0.25771040  0.74143305    -0.02150
H780        H  0.83164429  0.21182283  0.75742936     0.10010
H781        H  0.82627423  0.22560838  0.62773366     0.08020
Br782      Br  0.76256106  0.19073818  0.64421227    -0.02580
C783        C  0.72907901  0.07662304  0.69879247    -0.09220
C784        C  0.71231191  0.10584896  0.71333910     0.06980
C785        C  0.67687205  0.10935762  0.70682357    -0.02980
C786        C  0.65884500  0.08330999  0.68813725    -0.07430
C787        C  0.67547515  0.05446899  0.67285700     0.06090
C788        C  0.71119879  0.05138381  0.67812555    -0.02460
Br789      Br  0.73771355  0.01580773  0.65501384    -0.02150
H790        H  0.75644672  0.07400557  0.70254800     0.10010
H791        H  0.63156708  0.08652208  0.68415367     0.08020
Br792      Br  0.65195451  0.15104477  0.71777497    -0.02580
C793        C  0.18851850  0.83065695  0.21633692    -0.09220
C794        C  0.20644594  0.80120657  0.20419405     0.06980
C795        C  0.24211120  0.79980331  0.21049979    -0.02980
C796        C  0.25892494  0.82760099  0.22811853    -0.07430
C797        C  0.24083273  0.85652926  0.24137045     0.06090
C798        C  0.20517757  0.85790645  0.23513257    -0.02460
Br799      Br  0.17707797  0.89431075  0.25450426    -0.02150
H800        H  0.16111939  0.83206408  0.21196212     0.10010
H801        H  0.28622426  0.82582623  0.23291574     0.08020
Br802      Br  0.26883136  0.75919187  0.19977371    -0.02580
C803        C  0.22436180  0.65535099  0.08642010    -0.09220
C804        C  0.23869992  0.67297935  0.05765556     0.06980
C805        C  0.23206077  0.70889406  0.05413240    -0.02980
C806        C  0.21204319  0.72637276  0.07951202    -0.07430
C807        C  0.19894746  0.70895256  0.10903281     0.06090
C808        C  0.20542777  0.67299105  0.11233325    -0.02460
Br809      Br  0.19341661  0.64720334  0.15368378    -0.02150
H810        H  0.22933807  0.62788047  0.08972688     0.10010
H811        H  0.20781305  0.75407469  0.07693352     0.08020
Br812      Br  0.25251325  0.73646085  0.01764377    -0.02580
C813        C  0.10606985  0.67717847  0.19983977    -0.09220
C814        C  0.10818260  0.71383426  0.20172851     0.06980
C815        C  0.08243337  0.73192478  0.22091585    -0.02980
C816        C  0.05719209  0.71314318  0.23962765    -0.07430
C817        C  0.05643745  0.67650989  0.23859461     0.06090
C818        C  0.08018986  0.65873883  0.21702673    -0.02460
Br819      Br  0.07794735  0.60908388  0.20903864    -0.02150
H820        H  0.12495841  0.66235107  0.18526182     0.10010
H821        H  0.03848925  0.72713273  0.25542973     0.08020
Br822      Br  0.07901415  0.78184521  0.22112626    -0.02580
C823        C  0.82758362  0.70293682  0.72604944    -0.09220
C824        C  0.79868996  0.71474845  0.70791157     0.06980
C825        C  0.79691805  0.70935565  0.67087626    -0.02980
C826        C  0.82378295  0.69300464  0.65295293    -0.07430
C827        C  0.85206636  0.67998112  0.67116519     0.06090
C828        C  0.85391534  0.68533017  0.70816660    -0.02460
Br829      Br  0.88976427  0.66626345  0.73618649    -0.02150
H830        H  0.82922146  0.70657714  0.75449838     0.10010
H831        H  0.82166477  0.68876154  0.62460525     0.08020
Br832      Br  0.75687907  0.71941088  0.64353884    -0.02580
C833        C  0.65486514  0.82477371  0.69160157    -0.09220
C834        C  0.67177005  0.85419601  0.67805518     0.06980
C835        C  0.70706110  0.85940307  0.68540163    -0.02980
C836        C  0.72461283  0.83498067  0.70537024    -0.07430
C837        C  0.70789046  0.80471909  0.71745600     0.06090
C838        C  0.67260716  0.79968826  0.70998932    -0.02460
Br839      Br  0.64788170  0.75701483  0.71897381    -0.02150
H840        H  0.62789489  0.82014497  0.68598438     0.10010
H841        H  0.75179839  0.83890858  0.71024531     0.08020
Br842      Br  0.73359024  0.89700179  0.66582866    -0.02580
C843        C  0.67446860  0.71099046  0.80522734    -0.09220
C844        C  0.71050632  0.71079878  0.80552985     0.06980
C845        C  0.72701870  0.69228629  0.83249628    -0.02980
C846        C  0.70735234  0.67327782  0.85697013    -0.07430
C847        C  0.67131941  0.67311905  0.85567487     0.06090
C848        C  0.65507203  0.69345756  0.83029788    -0.02460
Br849      Br  0.60640553  0.70052558  0.82976684    -0.02150
H850        H  0.66088392  0.72499264  0.78532527     0.10010
H851        H  0.72021795  0.65848980  0.87694100     0.08020
Br852      Br  0.77586178  0.69370564  0.83886003    -0.02580
loop_ 
_geom_bond_atom_site_label_1 
_geom_bond_atom_site_label_2 
_geom_bond_distance 
_geom_bond_site_symmetry_2 
_ccdc_geom_bond_type 
C1            C2   1.409       .  A
C1            C6   1.405       .  A
C1          C824   1.488       .  S
C2            C3   1.408       .  A
C2            H7   1.082       .  S
C3            C4   1.408       .  A
C3          C844   1.496       .  S
C4            C5   1.400       .  A
C4            H8   1.083       .  S
C5            C6   1.401       .  A
C5          C837   1.486       .  S
C6            H9   1.083       .  S
C10          C11   1.408       .  A
C10          C15   1.409       .  A
C10         C814   1.497       .  S
C11          C12   1.409       .  A
C11          H16   1.082       .  S
C12          C13   1.404       .  A
C12         C794   1.488       .  S
C13          C14   1.401       .  A
C13          H17   1.083       .  S
C14          C15   1.401       .  A
C14         C807   1.485       .  S
C15          H18   1.083       .  S
C19          C20   1.402       .  A
C19          C24   1.403       .  A
C19         C784   1.489       .  S
C20          C21   1.406       .  A
C20          H25   1.083       .  S
C21          C22   1.407       .  A
C21         C774   1.489       .  S
C22          C23   1.407       .  A
C22          H26   1.083       .  S
C23          C24   1.408       .  A
C23         C764   1.494       .  S
C24          H27   1.083       .  S
C28          C29   1.410       .  A
C28          C33   1.408       .  A
C28         C744   1.501       .  S
C29          C30   1.407       .  A
C29          H34   1.083       .  S
C30          C31   1.406       .  A
C30         C734   1.490       .  S
C31          C32   1.403       .  A
C31          H35   1.084       .  S
C32          C33   1.407       .  A
C32         C754   1.484       .  S
C33          H36   1.082       .  S
C37          C38   1.412       .  A
C37          C42   1.408       .  A
C37         C727   1.504       .  S
C38          C39   1.410       .  A
C38          H43   1.083       .  S
C39          C40   1.404       .  A
C39         C714   1.491       .  S
C40          C41   1.398       .  A
C40          H44   1.084       .  S
C41          C42   1.407       .  A
C41         C704   1.481       .  S
C42          H45   1.082       .  S
C46          C47   1.407       .  A
C46          C51   1.409       .  A
C46         C687   1.493       .  S
C47          C48   1.401       .  A
C47          H52   1.084       .  S
C48          C49   1.400       .  A
C48         C674   1.485       .  S
C49          C50   1.407       .  A
C49          H53   1.084       .  S
C50          C51   1.409       .  A
C50         C697   1.491       .  S
C51          H54   1.083       .  S
O55         Cu63   2.010       .  S
O55          C65   1.277       .  A
O56         Cu63   2.019       .  S
O56          C66   1.278       .  A
O57         Cu63   2.026       .  S
O57          C67   1.279       .  A
O58         Cu63   2.021       .  S
O58          C68   1.278       .  A
O59         Cu64   2.000       .  S
O59          C68   1.277       .  A
O60         Cu64   1.997       .  S
O60          C67   1.277       .  A
O61         Cu64   2.004       .  S
O61          C66   1.276       .  A
O62         Cu64   1.995       .  S
O62          C65   1.275       .  A
Cu63        Cu64   2.377       .  S
C65         C667   1.461       .  S
C66         C634   1.469       .  S
C67         C644   1.475       .  S
C68         C654   1.475       .  S
C69          C70   1.408       .  A
C69          C74   1.420   1_554  A
C69         C624   1.490       .  S
C70          C71   1.392       .  A
C70          H75   1.084       .  S
C71          C72   1.389   1_554  A
C71         C637   1.474       .  S
C72          C73   1.411       .  A
C72          H76   1.083       .  S
C73          C74   1.416       .  A
C73         C121   1.506       .  S
C74          H77   1.082       .  S
C78          C79   1.415   1_554  A
C78          C83   1.415       .  A
C78         C804   1.486       .  S
C79          C80   1.408       .  A
C79          H84   1.082       .  S
C80          C81   1.405       .  A
C80         C130   1.497       .  S
C81          C82   1.389   1_556  A
C81          H85   1.083       .  S
C82          C83   1.396       .  A
C82         C657   1.482       .  S
C83          H86   1.083       .  S
C87          C88   1.409       .  A
C87          C92   1.415   1_554  A
C87         C684   1.488       .  S
C88          C89   1.396       .  A
C88          H93   1.083       .  S
C89          C90   1.394   1_554  A
C89         C647   1.487       .  S
C90          C91   1.410       .  A
C90          H94   1.077       .  S
C91          C92   1.412       .  A
C91         C139   1.507       .  S
C92          H95   1.081       .  S
C96          C97   1.409       .  A
C96         C101   1.420       .  A
C96         C614   1.490       .  S
C97          C98   1.388       .  A
C97         H102   1.084       .  S
C98          C99   1.386   1_554  A
C98         C664   1.470       .  S
C99         C100   1.410       .  A
C99         H103   1.082       .  S
C100        C101   1.416   1_556  A
C100        C148   1.505       .  S
C101        H104   1.081   1_554  S
O105       Cu113   2.007       .  S
O105        C115   1.276       .  A
O106       Cu113   2.006       .  S
O106        C116   1.276       .  A
O107       Cu113   2.025       .  S
O107        C117   1.279       .  A
O108       Cu113   2.031       .  S
O108        C118   1.281       .  A
O109       Cu114   1.982       .  S
O109        C118   1.274       .  A
O110       Cu114   1.989       .  S
O110        C117   1.275       .  A
O111       Cu114   2.012       .  S
O111        C116   1.278       .  A
O112       Cu114   2.005       .  S
O112        C115   1.278       .  A
Cu113      Cu114   2.377       .  S
C115        C584   1.465       .  S
C116        C594   1.468       .  S
C117        C604   1.475       .  S
C118        C574   1.474       .  S
C119        C120   1.420       .  A
C119        C124   1.408       .  A
C119        C737   1.488       .  S
C120        C121   1.415       .  A
C120        H125   1.082       .  S
C121        C122   1.408       .  A
C122        C123   1.393       .  A
C122        H126   1.080       .  S
C123        C124   1.392       .  A
C123        C577   1.486       .  S
C124        H127   1.084       .  S
C128        C129   1.420       .  A
C128        C133   1.417       .  A
C128        C707   1.502       .  S
C129        C130   1.410       .  A
C129        H134   1.078       .  S
C130        C131   1.404       .  A
C131        C132   1.386       .  A
C131        H135   1.083       .  S
C132        C133   1.395       .  A
C132        C597   1.478       .  S
C133        H136   1.083       .  S
C137        C138   1.415       .  A
C137        C142   1.406       .  A
C137        C767   1.483       .  S
C138        C139   1.417       .  A
C138        H143   1.081       .  S
C139        C140   1.410       .  A
C140        C141   1.390       .  A
C140        H144   1.080       .  S
C141        C142   1.390       .  A
C141        C587   1.472       .  S
C142        H145   1.084       .  S
C146        C147   1.417       .  A
C146        C151   1.412       .  A
C146        C847   1.483       .  S
C147        C148   1.413       .  A
C147        H152   1.082       .  S
C148        C149   1.408       .  A
C149        C150   1.391       .  A
C149        H153   1.082       .  S
C150        C151   1.395       .  A
C150        C607   1.483       .  S
C151        H154   1.084       .  S
O155       Cu163   2.002       .  S
O155        C165   1.277       .  A
O156       Cu163   2.005       .  S
O156        C166   1.277       .  A
O157       Cu163   1.980       .  S
O157        C167   1.274       .  A
O158       Cu163   1.989       .  S
O158        C168   1.276       .  A
O159       Cu164   2.023       .  S
O159        C168   1.279       .  A
O160       Cu164   2.030       .  S
O160        C167   1.280       .  A
O161       Cu164   2.019       .  S
O161        C166   1.278       .  A
O162       Cu164   2.006       .  S
O162        C165   1.276       .  A
Cu163      Cu164   2.376       .  S
C165        C564   1.467       .  S
C166        C537   1.470       .  S
C167        C554   1.471       .  S
C168        C547   1.476       .  S
C169        C170   1.409       .  A
C169        C174   1.416       .  A
C169        C524   1.483       .  S
C170        C171   1.393       .  A
C170        H175   1.084       .  S
C171        C172   1.389   1_545  A
C171        C534   1.475       .  S
C172        C173   1.409       .  A
C172        H176   1.083       .  S
C173        C174   1.411   1_565  A
C173        C221   1.499       .  S
C174        H177   1.083   1_545  S
C178        C179   1.411       .  A
C178        C183   1.419       .  A
C178        C694   1.486       .  S
C179        C180   1.394       .  A
C179        H184   1.084       .  S
C180        C181   1.390   1_545  A
C180        C557   1.479       .  S
C181        C182   1.406       .  A
C181        H185   1.083       .  S
C182        C183   1.410   1_565  A
C182        C232   1.500       .  S
C183        H186   1.082   1_545  S
C187        C188   1.415       .  A
C187        C192   1.422   1_545  A
C187        C757   1.498       .  S
C188        C189   1.392       .  A
C188        H193   1.082       .  S
C189        C190   1.389   1_545  A
C189        C544   1.484       .  S
C190        C191   1.407       .  A
C190        H194   1.082       .  S
C191        C192   1.416       .  A
C191        C241   1.506       .  S
C192        H195   1.081       .  S
C196        C197   1.411       .  A
C196        C201   1.416   1_545  A
C196        C787   1.491       .  S
C197        C198   1.392       .  A
C197        H202   1.084       .  S
C198        C199   1.388   1_545  A
C198        C567   1.473       .  S
C199        C200   1.406       .  A
C199        H203   1.081       .  S
C200        C201   1.414       .  A
C200        C248   1.503       .  S
C201        H204   1.079       .  S
O205       Cu213   1.989       .  S
O205        C215   1.275       .  A
O206       Cu213   1.991       .  S
O206        C216   1.276       .  A
O207       Cu213   2.000       .  S
O207        C217   1.276       .  A
O208       Cu213   1.997       .  S
O208        C218   1.277       .  A
O209       Cu214   2.012       .  S
O209        C218   1.277       .  A
O210       Cu214   2.024       .  S
O210        C217   1.278       .  A
O211       Cu214   2.028       .  S
O211        C216   1.280       .  A
O212       Cu214   2.030       .  S
O212        C215   1.280       .  A
Cu213      Cu214   2.375       .  S
C215        C507   1.482       .  S
C216        C494   1.472       .  S
C217        C514   1.469       .  S
C218        C484   1.472       .  S
C219        C220   1.418       .  A
C219        C224   1.411       .  A
C219        C797   1.488       .  S
C220        C221   1.411       .  A
C220        H225   1.082       .  S
C221        C222   1.405       .  A
C222        C223   1.392       .  A
C222        H226   1.083       .  S
C223        C224   1.396       .  A
C223        C487   1.484       .  S
C224        H227   1.083       .  S
C228        C229   1.413       .  A
C228        C233   1.416       .  A
C228        C477   1.484       .  S
C229        C230   1.397       .  A
C229        H234   1.083       .  S
C230        C231   1.393       .  A
C230        C504   1.488       .  S
C231        C232   1.407       .  A
C231        H235   1.084       .  S
C232        C233   1.409       .  A
C233        H236   1.083       .  S
C237        C238   1.409       .  A
C237        C242   1.420       .  A
C237        C717   1.486       .  S
C238        C239   1.391       .  A
C238        H243   1.084       .  S
C239        C240   1.389       .  A
C239        C497   1.477       .  S
C240        C241   1.410       .  A
C240        H244   1.082       .  S
C241        C242   1.414       .  A
C242        H245   1.082       .  S
C246        C247   1.413       .  A
C246        C251   1.410       .  A
C246        C834   1.486       .  S
C247        C248   1.412       .  A
C247        H252   1.081       .  S
C248        C249   1.411       .  A
C249        C250   1.389       .  A
C249        H253   1.081       .  S
C250        C251   1.392       .  A
C250        C517   1.475       .  S
C251        H254   1.084       .  S
C255        C256   1.406       .  A
C255        C260   1.404       .  A
C255        C617   1.490       .  S
C256        C257   1.410       .  A
C256        H261   1.084       .  S
C257        C258   1.410       .  A
C257        C474   1.498       .  S
C258        C259   1.409       .  A
C258        H262   1.083       .  S
C259        C260   1.399       .  A
C259        C464   1.486       .  S
C260        H263   1.083       .  S
O264       Cu272   2.018       .  S
O264        C274   1.278       .  A
O265       Cu272   2.022       .  S
O265        C275   1.279       .  A
O266       Cu272   2.016       .  S
O266        C276   1.278       .  A
O267       Cu272   2.028       .  S
O267        C277   1.279       .  A
O268       Cu273   1.999       .  S
O268        C277   1.278       .  A
O269       Cu273   1.987       .  S
O269        C276   1.276       .  A
O270       Cu273   1.994       .  S
O270        C275   1.276       .  A
O271       Cu273   1.996       .  S
O271        C274   1.275       .  A
Cu272      Cu273   2.374       .  S
C274        C457   1.466       .  S
C275        C427   1.472       .  S
C276        C444   1.471       .  S
C277        C434   1.479       .  S
C278        C279   1.409       .  A
C278        C283   1.412   1_455  A
C278        C414   1.485       .  S
C279        C280   1.397       .  A
C279        H284   1.084       .  S
C280        C281   1.395   1_455  A
C280        C424   1.484       .  S
C281        C282   1.407       .  A
C281        H285   1.081       .  S
C282        C283   1.408       .  A
C282        C330   1.495       .  S
C283        H286   1.083       .  S
C287        C288   1.409       .  A
C287        C292   1.419   1_455  A
C287        C817   1.481       .  S
C288        C289   1.391       .  A
C288        H293   1.084       .  S
C289        C290   1.389   1_455  A
C289        C447   1.480       .  S
C290        C291   1.410       .  A
C290        H294   1.080       .  S
C291        C292   1.417       .  A
C291        C341   1.513       .  S
C292        H295   1.081       .  S
C296        C297   1.412       .  A
C296        C301   1.417   1_455  A
C296        C747   1.487       .  S
C297        C298   1.392       .  A
C297        H302   1.084       .  S
C298        C299   1.391   1_455  A
C298        C437   1.483       .  S
C299        C300   1.412       .  A
C299        H303   1.080       .  S
C300        C301   1.414       .  A
C300        C350   1.510       .  S
C301        H304   1.081       .  S
C305        C306   1.408       .  A
C305        C310   1.415   1_455  A
C305        C724   1.484       .  S
C306        C307   1.389       .  A
C306        H311   1.084       .  S
C307        C308   1.389   1_455  A
C307        C454   1.473       .  S
C308        C309   1.412       .  A
C308        H312   1.081       .  S
C309        C310   1.414       .  A
C309        C357   1.503       .  S
C310        H313   1.082       .  S
O314       Cu322   1.994       .  S
O314        C324   1.276       .  A
O315       Cu322   1.984       .  S
O315        C325   1.275       .  A
O316       Cu322   1.992       .  S
O316        C326   1.276       .  A
O317       Cu322   1.991       .  S
O317        C327   1.276       .  A
O318       Cu323   2.011       .  S
O318        C327   1.277       .  A
O319       Cu323   2.011       .  S
O319        C326   1.277       .  A
O320       Cu323   2.016       .  S
O320        C325   1.278       .  A
O321       Cu323   2.027       .  S
O321        C324   1.279       .  A
Cu322      Cu323   2.375       .  S
C324        C394   1.475       .  S
C325        C384   1.466       .  S
C326        C374   1.467       .  S
C327        C404   1.465       .  S
C328        C329   1.413       .  A
C328        C333   1.408       .  A
C328        C677   1.484       .  S
C329        C330   1.411       .  A
C329        H334   1.083       .  S
C330        C331   1.406       .  A
C331        C332   1.393       .  A
C331        H335   1.082       .  S
C332        C333   1.394       .  A
C332        C377   1.481       .  S
C333        H336   1.084       .  S
C337        C338   1.414       .  A
C337        C342   1.422       .  A
C337        C467   1.499       .  S
C338        C339   1.391       .  A
C338        H343   1.084       .  S
C339        C340   1.387       .  A
C339        C397   1.481       .  S
C340        C341   1.410       .  A
C340        H344   1.080       .  S
C341        C342   1.417       .  A
C342        H345   1.078       .  S
C346        C347   1.408       .  A
C346        C351   1.420       .  A
C346        C777   1.487       .  S
C347        C348   1.388       .  A
C347        H352   1.084       .  S
C348        C349   1.388       .  A
C348        C387   1.474       .  S
C349        C350   1.408       .  A
C349        H353   1.080       .  S
C350        C351   1.417       .  A
C351        H354   1.080       .  S
C355        C356   1.418       .  A
C355        C360   1.409       .  A
C355        C827   1.487       .  S
C356        C357   1.414       .  A
C356        H361   1.082       .  S
C357        C358   1.407       .  A
C358        C359   1.389       .  A
C358        H362   1.082       .  S
C359        C360   1.390       .  A
C359        C407   1.473       .  S
C360        H363   1.084       .  S
C364        C365   1.412       .  A
C364        C369   1.404       .  A
C364        C527   1.490       .  S
C365        C366   1.412       .  A
C365        H370   1.083       .  S
C366        C367   1.409       .  A
C366        C627   1.497       .  S
C367        C368   1.401       .  A
C367        H371   1.084       .  S
C368        C369   1.399       .  A
C368        C417   1.484       .  S
C369        H372   1.084       .  S
C373        C374   1.399       .  A
C373        C378   1.398       .  A
C373        H380   1.084       .  S
C374        C375   1.408       .  A
C375        C376   1.396       .  A
C375       Br382   1.921       .  S
C376        C377   1.404       .  A
C376        H381   1.084       .  S
C377        C378   1.415       .  A
C378       Br379   1.920       .  S
C383        C384   1.405       .  A
C383        C388   1.402       .  A
C383        H390   1.084       .  S
C384        C385   1.407       .  A
C385        C386   1.391       .  A
C385       Br392   1.922       .  S
C386        C387   1.402       .  A
C386        H391   1.084       .  S
C387        C388   1.408       .  A
C388       Br389   1.917       .  S
C393        C394   1.406       .  A
C393        C398   1.405       .  A
C393        H400   1.083       .  S
C394        C395   1.409       .  A
C395        C396   1.394       .  A
C395       Br402   1.922       .  S
C396        C397   1.404       .  A
C396        H401   1.084       .  S
C397        C398   1.409       .  A
C398       Br399   1.918       .  S
C403        C404   1.398       .  A
C403        C408   1.391       .  A
C403        H410   1.084       .  S
C404        C405   1.411       .  A
C405        C406   1.402       .  A
C405       Br412   1.918       .  S
C406        C407   1.401       .  A
C406        H411   1.083       .  S
C407        C408   1.411       .  A
C408       Br409   1.922       .  S
C413        C414   1.403       .  A
C413        C418   1.395       .  A
C413        H420   1.084       .  S
C414        C415   1.412       .  A
C415        C416   1.402       .  A
C415       Br422   1.919       .  S
C416        C417   1.405       .  A
C416        H421   1.083       .  S
C417        C418   1.412       .  A
C418       Br419   1.921       .  S
C423        C424   1.407       .  A
C423        C428   1.402       .  A
C423        H430   1.083       .  S
C424        C425   1.411       .  A
C425        C426   1.396       .  A
C425       Br432   1.921   1_455  S
C426        C427   1.403       .  A
C426        H431   1.084       .  S
C427        C428   1.407       .  A
C428       Br429   1.918       .  S
C433        C434   1.400       .  A
C433        C438   1.393       .  A
C433        H440   1.084       .  S
C434        C435   1.414       .  A
C435        C436   1.407       .  A
C435       Br442   1.917       .  S
C436        C437   1.404       .  A
C436        H441   1.083       .  S
C437        C438   1.412       .  A
C438       Br439   1.922   1_455  S
C443        C444   1.405       .  A
C443        C448   1.403       .  A
C443        H450   1.083       .  S
C444        C445   1.408       .  A
C445        C446   1.391       .  A
C445       Br452   1.923   1_455  S
C446        C447   1.404       .  A
C446        H451   1.084       .  S
C447        C448   1.409       .  A
C448       Br449   1.913       .  S
C453        C454   1.404       .  A
C453        C458   1.397       .  A
C453        H460   1.084       .  S
C454        C455   1.405       .  A
C455        C456   1.401       .  A
C455       Br462   1.916       .  S
C456        C457   1.404       .  A
C456        H461   1.084       .  S
C457        C458   1.404       .  A
C458       Br459   1.917       .  S
C463        C464   1.407       .  A
C463        C468   1.409       .  A
C463        H470   1.083       .  S
C464        C465   1.405       .  A
C465        C466   1.389       .  A
C465       Br472   1.914       .  S
C466        C467   1.407       .  A
C466        H471   1.083       .  S
C467        C468   1.417       .  A
C468       Br469   1.918       .  S
C473        C474   1.410       .  A
C473        C478   1.403       .  A
C473        H480   1.083       .  S
C474        C475   1.417       .  A
C475        C476   1.396       .  A
C475       Br482   1.910       .  S
C476        C477   1.400       .  A
C476        H481   1.084       .  S
C477        C478   1.409       .  A
C478       Br479   1.919       .  S
C483        C484   1.406       .  A
C483        C488   1.404       .  A
C483        H490   1.082       .  S
C484        C485   1.406       .  A
C485        C486   1.390       .  A
C485       Br492   1.923       .  S
C486        C487   1.407       .  A
C486        H491   1.084       .  S
C487        C488   1.409       .  A
C488       Br489   1.917       .  S
C493        C494   1.400       .  A
C493        C498   1.395       .  A
C493        H500   1.084       .  S
C494        C495   1.411       .  A
C495        C496   1.404       .  A
C495       Br502   1.916       .  S
C496        C497   1.402       .  A
C496        H501   1.083       .  S
C497        C498   1.410       .  A
C498       Br499   1.921       .  S
C503        C504   1.405       .  A
C503        C508   1.390       .  A
C503        H510   1.083       .  S
C504        C505   1.409       .  A
C505        C506   1.408       .  A
C505       Br512   1.916       .  S
C506        C507   1.409       .  A
C506        H511   1.083       .  S
C507        C508   1.412       .  A
C508       Br509   1.925       .  S
C513        C514   1.400       .  A
C513        C518   1.398       .  A
C513        H520   1.084       .  S
C514        C515   1.408       .  A
C515        C516   1.401       .  A
C515       Br522   1.916       .  S
C516        C517   1.402       .  A
C516        H521   1.083       .  S
C517        C518   1.410       .  A
C518       Br519   1.920       .  S
C523        C524   1.404       .  A
C523        C528   1.404       .  A
C523        H530   1.083       .  S
C524        C525   1.410       .  A
C525        C526   1.396       .  A
C525       Br532   1.922       .  S
C526        C527   1.406       .  A
C526        H531   1.082       .  S
C527        C528   1.412       .  A
C528       Br529   1.916       .  S
C533        C534   1.405       .  A
C533        C538   1.401       .  A
C533        H540   1.084       .  S
C534        C535   1.406       .  A
C535        C536   1.398       .  A
C535       Br542   1.918       .  S
C536        C537   1.401       .  A
C536        H541   1.080       .  S
C537        C538   1.406       .  A
C538       Br539   1.918       .  S
C543        C544   1.406       .  A
C543        C548   1.390       .  A
C543        H550   1.084   1_545  S
C544        C545   1.408       .  A
C545        C546   1.406       .  A
C545       Br552   1.916       .  S
C546        C547   1.408       .  A
C546        H551   1.083       .  S
C547        C548   1.409       .  A
C548       Br549   1.923   1_545  S
C553        C554   1.406       .  A
C553        C558   1.405       .  A
C553        H560   1.084       .  S
C554        C555   1.408       .  A
C555        C556   1.389       .  A
C555       Br562   1.919       .  S
C556        C557   1.403       .  A
C556        H561   1.084       .  S
C557        C558   1.408       .  A
C558       Br559   1.914       .  S
C563        C564   1.399       .  A
C563        C568   1.393       .  A
C563        H570   1.084       .  S
C564        C565   1.410       .  A
C565        C566   1.402       .  A
C565       Br572   1.918       .  S
C566        C567   1.402       .  A
C566        H571   1.083       .  S
C567        C568   1.409       .  A
C568       Br569   1.921   1_545  S
C573        C574   1.402       .  A
C573        C578   1.402       .  A
C573        H580   1.084       .  S
C574        C575   1.411       .  A
C575        C576   1.393       .  A
C575       Br582   1.921       .  S
C576        C577   1.404       .  A
C576        H581   1.084       .  S
C577        C578   1.415       .  A
C578       Br579   1.920       .  S
C583        C584   1.399       .  A
C583        C588   1.395       .  A
C583        H590   1.080       .  S
C584        C585   1.406       .  A
C585        C586   1.400       .  A
C585       Br592   1.917       .  S
C586        C587   1.404       .  A
C586        H591   1.083       .  S
C587        C588   1.407       .  A
C588       Br589   1.919       .  S
C593        C594   1.400       .  A
C593        C598   1.398       .  A
C593        H600   1.084       .  S
C594        C595   1.407       .  A
C595        C596   1.399       .  A
C595       Br602   1.918       .  S
C596        C597   1.403       .  A
C596        H601   1.084       .  S
C597        C598   1.412       .  A
C598       Br599   1.920       .  S
C603        C604   1.406       .  A
C603        C608   1.405       .  A
C603        H610   1.083       .  S
C604        C605   1.410       .  A
C605        C606   1.390       .  A
C605       Br612   1.924       .  S
C606        C607   1.404       .  A
C606        H611   1.084       .  S
C607        C608   1.409       .  A
C608       Br609   1.913       .  S
C613        C614   1.406       .  A
C613        C618   1.392       .  A
C613        H620   1.084       .  S
C614        C615   1.411       .  A
C615        C616   1.406       .  A
C615       Br622   1.918       .  S
C616        C617   1.409       .  A
C616        H621   1.083       .  S
C617        C618   1.412       .  A
C618       Br619   1.925       .  S
C623        C624   1.405       .  A
C623        C628   1.407       .  A
C623        H630   1.083       .  S
C624        C625   1.413       .  A
C625        C626   1.394       .  A
C625       Br632   1.924       .  S
C626        C627   1.406       .  A
C626        H631   1.083       .  S
C627        C628   1.416       .  A
C628       Br629   1.916       .  S
C633        C634   1.404       .  A
C633        C638   1.401       .  A
C633        H640   1.083       .  S
C634        C635   1.405       .  A
C635        C636   1.398       .  A
C635       Br642   1.915       .  S
C636        C637   1.403       .  A
C636        H641   1.084       .  S
C637        C638   1.407       .  A
C638       Br639   1.917       .  S
C643        C644   1.402       .  A
C643        C648   1.395       .  A
C643        H650   1.084       .  S
C644        C645   1.409       .  A
C645        C646   1.404       .  A
C645       Br652   1.915       .  S
C646        C647   1.407       .  A
C646        H651   1.083       .  S
C647        C648   1.412       .  A
C648       Br649   1.923       .  S
C653        C654   1.408       .  A
C653        C658   1.406       .  A
C653        H660   1.083       .  S
C654        C655   1.407       .  A
C655        C656   1.392       .  A
C655       Br662   1.922       .  S
C656        C657   1.406       .  A
C656        H661   1.084       .  S
C657        C658   1.407       .  A
C658       Br659   1.915       .  S
C663        C664   1.402       .  A
C663        C668   1.397       .  A
C663        H670   1.084       .  S
C664        C665   1.407       .  A
C665        C666   1.397       .  A
C665       Br672   1.918       .  S
C666        C667   1.401       .  A
C666        H671   1.084       .  S
C667        C668   1.404       .  A
C668       Br669   1.917       .  S
C673        C674   1.407       .  A
C673        C678   1.404       .  A
C673        H680   1.083       .  S
C674        C675   1.413       .  A
C675        C676   1.393       .  A
C675       Br682   1.921       .  S
C676        C677   1.403       .  A
C676        H681   1.083       .  S
C677        C678   1.411       .  A
C678       Br679   1.919       .  S
C683        C684   1.406       .  A
C683        C688   1.404       .  A
C683        H690   1.083       .  S
C684        C685   1.412       .  A
C685        C686   1.394       .  A
C685       Br692   1.924       .  S
C686        C687   1.405       .  A
C686        H691   1.081       .  S
C687        C688   1.413       .  A
C688       Br689   1.916       .  S
C693        C694   1.404       .  A
C693        C698   1.403       .  A
C693        H700   1.083       .  S
C694        C695   1.412       .  A
C695        C696   1.394       .  A
C695       Br702   1.921       .  S
C696        C697   1.405       .  A
C696        H701   1.083       .  S
C697        C698   1.414       .  A
C698       Br699   1.916       .  S
C703        C704   1.404       .  A
C703        C708   1.407       .  A
C703        H710   1.084       .  S
C704        C705   1.402       .  A
C705        C706   1.390       .  A
C705       Br712   1.914       .  S
C706        C707   1.410       .  A
C706        H711   1.082       .  S
C707        C708   1.421       .  A
C708       Br709   1.920       .  S
C713        C714   1.404       .  A
C713        C718   1.397       .  A
C713        H720   1.083       .  S
C714        C715   1.416       .  A
C715        C716   1.403       .  A
C715       Br722   1.920       .  S
C716        C717   1.403       .  A
C716        H721   1.083       .  S
C717        C718   1.413       .  A
C718       Br719   1.923       .  S
C723        C724   1.398       .  A
C723        C728   1.394       .  A
C723        H730   1.085       .  S
C724        C725   1.407       .  A
C725        C726   1.405       .  A
C725       Br732   1.918       .  S
C726        C727   1.413       .  A
C726        H731   1.083       .  S
C727        C728   1.420       .  A
C728       Br729   1.912       .  S
C733        C734   1.408       .  A
C733        C738   1.405       .  A
C733        H740   1.083       .  S
C734        C735   1.412       .  A
C735        C736   1.397       .  A
C735       Br742   1.922       .  S
C736        C737   1.406       .  A
C736        H741   1.084       .  S
C737        C738   1.410       .  A
C738       Br739   1.918       .  S
C743        C744   1.411       .  A
C743        C748   1.404       .  A
C743        H750   1.083       .  S
C744        C745   1.418       .  A
C745        C746   1.395       .  A
C745       Br752   1.911       .  S
C746        C747   1.400       .  A
C746        H751   1.084       .  S
C747        C748   1.411       .  A
C748       Br749   1.919       .  S
C753        C754   1.404       .  A
C753        C758   1.407       .  A
C753        H760   1.083       .  S
C754        C755   1.405       .  A
C755        C756   1.393       .  A
C755       Br762   1.914       .  S
C756        C757   1.408       .  A
C756        H761   1.083       .  S
C757        C758   1.418       .  A
C758       Br759   1.919       .  S
C763        C764   1.404       .  A
C763        C768   1.390       .  A
C763        H770   1.079       .  S
C764        C765   1.416       .  A
C765        C766   1.407       .  A
C765       Br772   1.919       .  S
C766        C767   1.405       .  A
C766        H771   1.083       .  S
C767        C768   1.410       .  A
C768       Br769   1.925       .  S
C773        C774   1.409       .  A
C773        C778   1.403       .  A
C773        H780   1.083       .  S
C774        C775   1.413       .  A
C775        C776   1.394       .  A
C775       Br782   1.924       .  S
C776        C777   1.406       .  A
C776        H781   1.084       .  S
C777        C778   1.410       .  A
C778       Br779   1.918       .  S
C783        C784   1.407       .  A
C783        C788   1.406       .  A
C783        H790   1.083       .  S
C784        C785   1.413       .  A
C785        C786   1.391       .  A
C785       Br792   1.920       .  S
C786        C787   1.404       .  A
C786        H791   1.084       .  S
C787        C788   1.414       .  A
C788       Br789   1.919       .  S
C793        C794   1.405       .  A
C793        C798   1.401       .  A
C793        H800   1.083       .  S
C794        C795   1.413       .  A
C795        C796   1.398       .  A
C795       Br802   1.923       .  S
C796        C797   1.406       .  A
C796        H801   1.083       .  S
C797        C798   1.412       .  A
C798       Br799   1.920       .  S
C803        C804   1.403       .  A
C803        C808   1.395       .  A
C803        H810   1.083       .  S
C804        C805   1.414       .  A
C805        C806   1.402       .  A
C805       Br812   1.920       .  S
C806        C807   1.404       .  A
C806        H811   1.083       .  S
C807        C808   1.413       .  A
C808       Br809   1.921       .  S
C813        C814   1.406       .  A
C813        C818   1.390       .  A
C813        H820   1.081       .  S
C814        C815   1.419       .  A
C815        C816   1.408       .  A
C815       Br822   1.919       .  S
C816        C817   1.403       .  A
C816        H821   1.083       .  S
C817        C818   1.407       .  A
C818       Br819   1.920       .  S
C823        C824   1.406       .  A
C823        C828   1.402       .  A
C823        H830   1.084       .  S
C824        C825   1.413       .  A
C825        C826   1.396       .  A
C825       Br832   1.923       .  S
C826        C827   1.406       .  A
C826        H831   1.084       .  S
C827        C828   1.411       .  A
C828       Br829   1.919       .  S
C833        C834   1.402       .  A
C833        C838   1.393       .  A
C833        H840   1.084       .  S
C834        C835   1.414       .  A
C835        C836   1.403       .  A
C835       Br842   1.920       .  S
C836        C837   1.405       .  A
C836        H841   1.083       .  S
C837        C838   1.414       .  A
C838       Br839   1.920       .  S
C843        C844   1.405       .  A
C843        C848   1.389       .  A
C843        H850   1.079       .  S
C844        C845   1.417       .  A
C845        C846   1.408       .  A
C845       Br852   1.919       .  S
C846        C847   1.405       .  A
C846        H851   1.083       .  S
C847        C848   1.408       .  A
C848       Br849   1.921       .  S
