geometry optimzed in LAMMPS
_audit_creation_date              2020-12-01 
_audit_creation_method            'lammps2cif' 
_symmetry_space_group_name_H-M    'P1' 
_symmetry_Int_Tables_number       1 
_symmetry_cell_setting            triclinic 
loop_ 
_symmetry_equiv_pos_as_xyz 
  x,y,z 
_cell_length_a                    33.89777454 
_cell_length_b                    37.10096389759563 
_cell_length_c                    33.20476561914615 
_cell_angle_alpha                 90.00033403881439 
_cell_angle_beta                  112.39585655181902 
_cell_angle_gamma                 89.99884061681973 
loop_ 
_atom_site_label 
_atom_site_type_symbol 
_atom_site_fract_x 
_atom_site_fract_y 
_atom_site_fract_z 
_atom_site_charge 
C1          C  0.80348711  0.09437243  0.43073508     0.32000
C2          C  0.84034017  0.04577999  0.39479139     0.32000
C3          C  0.83275162  0.11021073  0.40924567    -0.04200
C4          C  0.83307091  0.06672709  0.46270861    -0.04900
C5          C  0.77234040  0.07004274  0.39549318    -0.04800
C6          C  0.85135576  0.08518142  0.39103554    -0.04200
C7          C  0.85207690  0.04138332  0.44414725    -0.04900
C8          C  0.79148812  0.04547149  0.37682135    -0.04800
C9          C  0.87326316  0.10374296  0.37026862    -0.30200
N10         N  0.86936059  0.13963070  0.37583142     0.16300
C11         C  0.84431357  0.14386308  0.39937137    -0.30200
H12         H  0.83179117  0.16939804  0.40495797     0.18200
C13         C  0.86921551  0.01459749  0.47470182    -0.29200
N14         N  0.86198035  0.02349291  0.51097180     0.15000
C15         C  0.83966579  0.05482585  0.50389741    -0.29200
C16         C  0.76343316  0.01719798  0.36174963    -0.29500
N17         N  0.72756843  0.02369911  0.36943451     0.15500
H18         H  0.76972572  0.49247406  0.34790911     0.18100
C19         C  0.73307075  0.05537724  0.39120743    -0.29500
H20         H  0.71092705  0.06643061  0.40435676     0.18200
H21         H  0.82613088  0.06636701  0.02572241     0.18200
H22         H  0.88764955  0.09210030  0.34922487     0.18200
H23         H  0.88269923  0.48934379  0.46974729     0.18200
Fe24       Fe  0.66609464  0.19840407  0.33014253     1.65800
Fe25       Fe  0.57988897  0.23840127  0.33776911     1.73200
Fe26       Fe  0.67594053  0.24318227  0.42212910     1.54400
O27         O  0.71647683  0.19838858  0.43864277    -0.79600
O28         O  0.59523413  0.29228326  0.34578956    -0.77900
O29         O  0.69446080  0.16275483  0.38039034    -0.82100
O30         O  0.71988038  0.23041393  0.35066338    -0.77000
O31         O  0.63607027  0.21818931  0.44655106    -0.78800
O32         O  0.57624641  0.24264669  0.27335817    -0.81500
C33         C  0.73377590  0.25768390  0.37522524     0.99200
C34         C  0.71865806  0.16930478  0.41945218     1.06700
O35         O  0.64070077  0.22638380  0.36326861    -1.10500
O36         O  0.56283417  0.18459086  0.32768799    -0.72900
O37         O  0.61419116  0.16414874  0.30646275    -0.76400
O38         O  0.71757227  0.26940690  0.40118672    -0.77100
C39         C  0.57871990  0.16063202  0.31084867     0.98200
O40         O  0.64150706  0.23077391  0.27622648    -0.75100
O41         O  0.57401157  0.23792529  0.39850540    -0.80300
C42         C  0.61879496  0.30826008  0.38043396     1.00800
C43         C  0.59799489  0.22842928  0.43693713     1.06700
O44         O  0.64284653  0.29164114  0.41434706    -0.75900
C45         C  0.60393112  0.24210076  0.25615829     1.05000
C46         C  0.64887378  0.34437815  0.12051076     0.32000
C47         C  0.61201875  0.29578631  0.15645112     0.32000
C48         C  0.61960964  0.36021719  0.14200127    -0.04200
C49         C  0.61928860  0.31673502  0.08853528    -0.04900
C50         C  0.68001933  0.32004579  0.15575111    -0.04800
C51         C  0.60100436  0.33518791  0.16020924    -0.04200
C52         C  0.60028160  0.29139159  0.10709516    -0.04900
C53         C  0.66087057  0.29547505  0.17442111    -0.04800
C54         C  0.57909478  0.35374898  0.18097482    -0.30200
N55         N  0.58299735  0.38963671  0.17541399     0.16300
C56         C  0.60804652  0.39386940  0.15187642    -0.30200
H57         H  0.62056882  0.41940458  0.14629126     0.18200
C58         C  0.58314609  0.26460524  0.07654100    -0.29200
N59         N  0.59038346  0.27350008  0.04027234     0.15000
C60         C  0.61269702  0.30483280  0.04734749    -0.29200
C61         C  0.68892462  0.26720008  0.18949213    -0.29500
N62         N  0.72479005  0.27369980  0.18180872     0.15500
H63         H  0.68263096  0.24247631  0.20333115     0.18100
C64         C  0.71928904  0.30537862  0.16003731    -0.29500
H65         H  0.74143380  0.31643158  0.14688978     0.18200
H66         H  0.62623426  0.31637298  0.02552422     0.18200
H67         H  0.56470628  0.34210585  0.20201608     0.18200
H68         H  0.56966400  0.23935143  0.08149525     0.18200
Fe69       Fe  0.78627717  0.44839404  0.22110085     1.65800
Fe70       Fe  0.87248188  0.48839240  0.21347844     1.73200
Fe71       Fe  0.77642957  0.99317886  0.12912025     1.54400
O72         O  0.73589051  0.44838786  0.11260596    -0.79600
O73         O  0.85713577  0.04227499  0.20546181    -0.77900
O74         O  0.75791815  0.41274567  0.17085062    -0.82100
O75         O  0.73248675  0.48040102  0.20057799    -0.77000
O76         O  0.81629835  0.46818506  0.10469536    -0.78800
O77         O  0.87612218  0.49263512  0.27788942    -0.81500
C78         C  0.71859335  0.50767562  0.17602324     0.99200
C79         C  0.73371309  0.41930109  0.13179276     1.06700
O80         O  0.81167057  0.47637653  0.18797823    -1.10500
O81         O  0.88953825  0.43458136  0.22355585    -0.72900
O82         O  0.83818362  0.41414048  0.24478350    -0.76400
O83         O  0.73480079  0.01940441  0.15006802    -0.77100
C84         C  0.87365416  0.41062288  0.24039618     0.98200
O85         O  0.81085962  0.48076462  0.27501637    -0.75100
O86         O  0.87835786  0.98791833  0.15274116    -0.80300
C87         C  0.83357501  0.05825347  0.17081829     1.00800
C88         C  0.85437391  0.47842358  0.11430913     1.06700
O89         O  0.80952535  0.04163584  0.13690367    -0.75900
C90         C  0.84843502  0.49209101  0.29508651     1.05000
Fe91       Fe  0.59345258  0.49069056  0.33793216     1.65800
Fe92       Fe  0.64263127  0.44770832  0.28167696     1.73200
Fe93       Fe  0.55144911  0.99152915  0.22725911     1.54400
O94         O  0.50561047  0.96556758  0.24276308    -0.79600
O95         O  0.64377503  0.47548665  0.22785624    -0.77900
O96         O  0.52721227  0.48172304  0.31317464    -0.82100
O97         O  0.58464060  0.04339031  0.32028337    -0.77000
O98         O  0.56070625  0.44600968  0.19258766    -0.78800
O99         O  0.68639061  0.48340810  0.31835383    -0.81500
C100        C  0.55734996  0.05748563  0.28661198     0.99200
C101        C  0.49838869  0.47123360  0.27716616     1.06700
O102        O  0.59589979  0.47698450  0.28273270    -1.10500
O103        O  0.64798025  0.41650904  0.33484260    -0.72900
O104        O  0.60053460  0.43820047  0.35976547    -0.76400
O105        O  0.53753141  0.03988112  0.25186610    -0.77100
C106        C  0.62449081  0.41325310  0.35644362     0.98200
O107        O  0.65966735  0.00358660  0.36596782    -0.75100
O108        O  0.60089760  0.41027478  0.24526319    -0.80300
C109        C  0.62864254  0.50549960  0.21003552     1.00800
C110        C  0.57994129  0.41605305  0.20554446     1.06700
O111        O  0.59508205  0.01941417  0.21109414    -0.75900
C112        C  0.68937787  0.50238197  0.35095167     1.05000
Fe113      Fe  0.85890549  0.24068477  0.21331448     1.65800
Fe114      Fe  0.80972501  0.19770772  0.26956913     1.73200
Fe115      Fe  0.90091017  0.24152133  0.32398678     1.54400
O116        O  0.94674385  0.21555279  0.30848258    -0.79600
O117        O  0.80858395  0.22548971  0.32338975    -0.77900
O118        O  0.92514523  0.23171653  0.23807380    -0.82100
O119        O  0.86771793  0.29338440  0.23096357    -0.77000
O120        O  0.89164936  0.19600415  0.35865858    -0.78800
O121        O  0.76596714  0.23340955  0.23289192    -0.81500
C122        C  0.89501407  0.30747667  0.26463330     0.99200
C123        C  0.95396739  0.22122376  0.27408158     1.06700
O124        O  0.85645745  0.22698012  0.26851335    -1.10500
O125        O  0.80437587  0.16650699  0.21640348    -0.72900
O126        O  0.85182578  0.18819392  0.19148473    -0.76400
O127        O  0.91483287  0.28987026  0.29937808    -0.77100
C128        C  0.82786908  0.16324787  0.19480654     0.98200
O129        O  0.79269086  0.25358243  0.18527699    -0.75100
O130        O  0.85145635  0.16027136  0.30598277    -0.80300
C131        C  0.82372003  0.25550173  0.34121052     1.00800
C132        C  0.87241415  0.16604822  0.34570135     1.06700
O133        O  0.85728147  0.26941246  0.34015159    -0.75900
C134        C  0.76298015  0.25238122  0.20029273     1.05000
C135        C  0.14876278  0.09416823  0.12055797     0.32000
C136        C  0.11196445  0.04556786  0.15654066     0.32000
C137        C  0.11952188  0.11000141  0.14208233    -0.04200
C138        C  0.11916799  0.06652261  0.08859705    -0.04900
C139        C  0.17993752  0.06983715  0.15577983    -0.04800
C140        C  0.10094355  0.08496714  0.16030944    -0.04200
C141        C  0.10018674  0.04117187  0.10717794    -0.04900
C142        C  0.16081581  0.04526185  0.17447324    -0.04800
C143        C  0.07904049  0.10352176  0.18108976    -0.30200
N144        N  0.08292676  0.13941256  0.17552873     0.16300
C145        C  0.10795431  0.14365127  0.15196714    -0.30200
H146        H  0.12046132  0.16918958  0.14637047     0.18200
C147        C  0.08315443  0.01432897  0.07667405    -0.29200
N148        N  0.09041974  0.02320049  0.04041464     0.15000
C149        C  0.11266895  0.05456340  0.04745454    -0.29200
C150        C  0.18886754  0.01697831  0.18950098    -0.29500
N151        N  0.22470601  0.02347350  0.18176712     0.15500
H152        H  0.18258651  0.49225061  0.20334217     0.18100
C153        C  0.21918748  0.05515972  0.16000632    -0.29500
H154        H  0.24130573  0.06621217  0.14682420     0.18200
H155        H  0.12624130  0.06608470  0.02565021     0.18200
H156        H  0.06466993  0.09187149  0.20214283     0.18200
H157        H  0.06974123  0.48905328  0.08166832     0.18200
Fe158      Fe  0.28615326  0.19820192  0.22098173     1.65800
Fe159      Fe  0.37231828  0.23820285  0.21329370     1.73200
Fe160      Fe  0.27622366  0.24300146  0.12899156     1.54400
O161        O  0.23567493  0.19821224  0.11251319    -0.79600
O162        O  0.35697757  0.29208615  0.20528356    -0.77900
O163        O  0.25780968  0.16254872  0.17073761    -0.82100
O164        O  0.23234118  0.23017875  0.20047374    -0.77000
O165        O  0.31605190  0.21801236  0.10450700    -0.78800
O166        O  0.37599734  0.24244068  0.27771477    -0.81500
C167        C  0.21843471  0.25746534  0.17594582     0.99200
C168        C  0.23354610  0.16911312  0.13170277     1.06700
O169        O  0.31150759  0.22619180  0.18783310    -1.10500
O170        O  0.38938487  0.18439598  0.22336503    -0.72900
O171        O  0.33807378  0.16396666  0.24465929    -0.76400
O172        O  0.23463403  0.26922592  0.14999793    -0.77100
C173        C  0.37352628  0.16044441  0.24023775     0.98200
O174        O  0.31074519  0.23058517  0.27488663    -0.75100
O175        O  0.37814600  0.23770827  0.15253848    -0.80300
C176        C  0.33341163  0.30806586  0.17064376     1.00800
C177        C  0.35414502  0.22820449  0.11411588     1.06700
O178        O  0.30932323  0.29145209  0.13674537    -0.75900
C179        C  0.34833149  0.24189767  0.29493832     1.05000
C180        C  0.30358643  0.34417221  0.43069116     0.31600
C181        C  0.34038623  0.29556878  0.39471162     0.32000
C182        C  0.33282617  0.36000349  0.40916467    -0.04200
C183        C  0.33318331  0.31652784  0.46265436    -0.04900
C184        C  0.27241263  0.31983953  0.39547162    -0.04800
C185        C  0.35140527  0.33496740  0.39093952    -0.04200
C186        C  0.35216541  0.29117554  0.44407481    -0.04900
C187        C  0.29153504  0.29526271  0.37678004    -0.04800
C188        C  0.37331083  0.35351939  0.37016063    -0.30200
N189        N  0.36942528  0.38941061  0.37572023     0.16300
C190        C  0.34439561  0.39365218  0.39927955    -0.30200
H191        H  0.33188980  0.41919163  0.40487566     0.18200
C192        C  0.36919190  0.26433032  0.47457725    -0.29200
N193        N  0.36192350  0.27320182  0.51083500     0.15000
C194        C  0.33967660  0.30456674  0.50379494    -0.29200
C195        C  0.26348402  0.26697939  0.36175369    -0.29500
N196        N  0.22764475  0.27347656  0.36948599     0.15500
H197        H  0.26976564  0.24225119  0.34791366     0.18100
C198        C  0.23316245  0.30516371  0.39124485    -0.29500
H199        H  0.21104317  0.31621820  0.40442522     0.18200
H200        H  0.32610071  0.31608764  0.02559654     0.18200
H201        H  0.38768361  0.34186719  0.34911040     0.18200
H202        H  0.38260223  0.23905280  0.46958221     0.18200
Fe203      Fe  0.16618204  0.44819390  0.33026950     1.65800
Fe204      Fe  0.08001802  0.48820430  0.33795158     1.73200
Fe205      Fe  0.17611255  0.99300275  0.42225266     1.54400
O206        O  0.21666574  0.44821445  0.43873202    -0.79600
O207        O  0.09536013  0.04208723  0.34595902    -0.77900
O208        O  0.19451771  0.41254121  0.38051718    -0.82100
O209        O  0.21999870  0.48016468  0.35077965    -0.77000
O210        O  0.13628651  0.46801537  0.44673972    -0.78800
O211        O  0.07634280  0.49243962  0.27353120    -0.81500
C212        C  0.23390186  0.00745631  0.37529934     0.99200
C213        C  0.21879043  0.41911128  0.41954719     1.06700
O214        O  0.14082782  0.47619004  0.36341354    -1.10500
O215        O  0.06294828  0.43439818  0.32788221    -0.72900
O216        O  0.11425857  0.41396356  0.30658935    -0.76400
O217        O  0.21769771  0.01922519  0.40123990    -0.77100
C218        C  0.07880578  0.41044432  0.31101047     0.98200
O219        O  0.14159597  0.48057755  0.27636386    -0.75100
O220        O  0.07419110  0.98771171  0.39870738    -0.80300
C221        C  0.11892538  0.05806722  0.38059843     1.00800
C222        C  0.09819254  0.47820722  0.43713017     1.06700
O223        O  0.14301058  0.04145321  0.41449843    -0.75900
C224        C  0.10401115  0.49189427  0.25631054     1.05000
Fe225      Fe  0.09354769  0.24051016  0.33811362     1.65800
Fe226      Fe  0.14263292  0.19747893  0.28179136     1.73200
Fe227      Fe  0.05144022  0.24131207  0.22744493     1.54400
O228        O  0.00563320  0.21538280  0.24302441    -0.79600
O229        O  0.14373705  0.22525112  0.22794825    -0.77900
O230        O  0.02729297  0.23162131  0.31341163    -0.82100
O231        O  0.08477607  0.29320896  0.32044824    -0.77000
O232        O  0.06064105  0.19577835  0.19274812    -0.78800
O233        O  0.18642576  0.23317267  0.31844254    -0.81500
C234        C  0.05744396  0.30729565  0.28679669     0.99200
C235        C  0.99843173  0.22114804  0.27741990     1.06700
O236        O  0.09592824  0.22676944  0.28289271    -1.10500
O237        O  0.14799775  0.16629539  0.33497197    -0.72900
O238        O  0.10060273  0.18801835  0.35995152    -0.76400
O239        O  0.03757632  0.28967872  0.25207292    -0.77100
C240        C  0.12453660  0.16305883  0.35660679     0.98200
O241        O  0.15977318  0.25336231  0.36610525    -0.75100
O242        O  0.10088222  0.16004303  0.24539404    -0.80300
C243        C  0.12857945  0.25525468  0.21011379     1.00800
C244        C  0.07989298  0.16582358  0.20568155     1.06700
O245        O  0.09503795  0.26917443  0.21121144    -0.75900
C246        C  0.18945268  0.25215242  0.35104846     1.05000
Fe247      Fe  0.35880300  0.49050695  0.21313661     1.65800
Fe248      Fe  0.30972072  0.44747425  0.26945900     1.73200
Fe249      Fe  0.40090942  0.99131109  0.32380653     1.54400
O250        O  0.44672468  0.96538956  0.30822817    -0.79600
O251        O  0.30861420  0.47524106  0.32330395    -0.77900
O252        O  0.42505912  0.48162147  0.23783789    -0.82100
O253        O  0.36756956  0.04320594  0.23080141    -0.77000
O254        O  0.39171414  0.44577432  0.35850130    -0.78800
O255        O  0.26592638  0.48316940  0.23281042    -0.81500
C256        C  0.39489631  0.05729505  0.26445417     0.99200
C257        C  0.45392400  0.47115391  0.27383068     1.06700
O258        O  0.35642395  0.47676588  0.26835805    -1.10500
O259        O  0.30435478  0.41629392  0.21627594    -0.72900
O260        O  0.35175073  0.43801505  0.19129791    -0.76400
O261        O  0.41476458  0.03968016  0.29917955    -0.77100
C262        C  0.32781475  0.41305706  0.19463993     0.98200
O263        O  0.29257663  0.00335698  0.18514569    -0.75100
O264        O  0.35147519  0.41003891  0.30585472    -0.80300
C265        C  0.32376567  0.50524588  0.34113653     1.00800
C266        C  0.37246256  0.41581986  0.34556759     1.06700
O267        O  0.35730552  0.01916847  0.34003941    -0.75900
C268        C  0.26289810  0.50214842  0.20020364     1.05000
C269        C  0.05089879  0.34523642  0.28863141    -0.11200
C270        C  0.05745159  0.37672329  0.29725298    -0.12800
C271        C  0.12000295  0.09664947  0.38077528    -0.11200
C272        C  0.12272670  0.12836855  0.37464256    -0.12800
C273        C  0.27113094  0.52386903  0.37404699    -0.11200
C274        C  0.30094375  0.52291984  0.36331964    -0.12800
C275        C  0.27992016  0.37123572  0.44517411    -0.11200
C276        C  0.25249626  0.39357471  0.44063881    -0.12800
C277        C  0.39487950  0.12672276  0.25399628    -0.11200
C278        C  0.40143487  0.09523626  0.26261867    -0.12800
C279        C  0.33233786  0.34664812  0.17046489    -0.11200
C280        C  0.32961977  0.37836772  0.17659938    -0.12800
C281        C  0.35697967  0.27096650  0.36998662    -0.11200
C282        C  0.35863292  0.25586307  0.33834488    -0.12800
C283        C  0.36802132  0.25085353  0.04681631    -0.11200
C284        C  0.36720365  0.23570366  0.07864846    -0.12800
C285        C  0.15139576  0.27293074  0.18792725    -0.11200
C286        C  0.18120644  0.27388125  0.17719697    -0.12800
C287        C  0.19984643  0.14357323  0.11060887    -0.11200
C288        C  0.17242672  0.12123127  0.10607320    -0.12800
C289        C  0.09371476  0.00586222  0.21290584    -0.11200
C290        C  0.09537104  0.02096676  0.18126622    -0.12800
C291        C  0.08513301  0.98570507  0.47259734    -0.11200
C292        C  0.08431718  0.00085360  0.00443118    -0.12800
C293        C  0.90156338  0.34541570  0.26279435    -0.11200
C294        C  0.89500533  0.37690071  0.25416292    -0.12800
C295        C  0.83245499  0.09683593  0.17065450    -0.11200
C296        C  0.82969462  0.12855069  0.17678986    -0.12800
C297        C  0.68136189  0.52411419  0.17724008    -0.11200
C298        C  0.65151276  0.52318538  0.18791150    -0.12800
C299        C  0.67257525  0.37143496  0.10606529    -0.11200
C300        C  0.70001838  0.39376676  0.11065511    -0.12800
C301        C  0.55736900  0.12691051  0.29708145    -0.11200
C302        C  0.55080732  0.09542595  0.28845038    -0.12800
C303        C  0.61991232  0.34684247  0.38060036    -0.11200
C304        C  0.62266888  0.37855739  0.37446448    -0.12800
C305        C  0.59367313  0.25608171  0.21276356    -0.11200
C306        C  0.59538357  0.27118953  0.18114818    -0.12800
C307        C  0.58496010  0.23600615  0.47240401    -0.11200
C308        C  0.58420167  0.25117810  0.00424883    -0.12800
C309        C  0.77100632  0.27412326  0.37400979    -0.11200
C310        C  0.80085390  0.27319137  0.36333643    -0.12800
C311        C  0.75234788  0.14376626  0.44059194    -0.11200
C312        C  0.77978789  0.12143060  0.44518237    -0.12800
C313        C  0.85697544  0.02118271  0.37009373    -0.11200
C314        C  0.85868904  0.00607373  0.33848006    -0.12800
C315        C  0.86816496  0.00117153  0.04699628    -0.11200
C316        C  0.86740780  0.98600027  0.07884183    -0.12800
C317        C  0.80348712  0.09437242  0.93073512     0.32000
C318        C  0.84034020  0.04577998  0.89479142     0.32000
C319        C  0.83275150  0.11021075  0.90924563    -0.04200
C320        C  0.83307099  0.06672707  0.96270862    -0.04900
C321        C  0.77234044  0.07004276  0.89549325    -0.04800
C322        C  0.85135576  0.08518144  0.89103561    -0.04200
C323        C  0.85207696  0.04138330  0.94414725    -0.04900
C324        C  0.79148814  0.04547151  0.87682139    -0.04800
C325        C  0.87326317  0.10374300  0.87026879    -0.30200
N326        N  0.86936060  0.13963074  0.87583154     0.16300
C327        C  0.84431342  0.14386311  0.89937134    -0.30200
H328        H  0.83179103  0.16939806  0.90495796     0.18200
C329        C  0.86921561  0.01459741  0.97470177    -0.29200
N330        N  0.86198045  0.02349287  0.01097176     0.15000
C331        C  0.83966587  0.05482573  0.00389734    -0.29200
C332        C  0.76343309  0.01719810  0.86174958    -0.29500
N333        N  0.72756843  0.02369920  0.86943452     0.15500
H334        H  0.76972585  0.49247409  0.84790930     0.18100
C335        C  0.73307082  0.05537726  0.89120756    -0.29500
H336        H  0.71092714  0.06643067  0.90435706     0.18200
H337        H  0.82613095  0.06636704  0.52572227     0.18200
H338        H  0.88764967  0.09210025  0.84922499     0.18200
H339        H  0.88269910  0.48934378  0.96974736     0.18200
Fe340      Fe  0.66609465  0.19840404  0.83014250     1.65800
Fe341      Fe  0.57988899  0.23840125  0.83776902     1.73200
Fe342      Fe  0.67594050  0.24318226  0.92212915     1.54400
O343        O  0.71647679  0.19838859  0.93864281    -0.79600
O344        O  0.59523416  0.29228325  0.84578956    -0.77900
O345        O  0.69446076  0.16275488  0.88039035    -0.82100
O346        O  0.71988044  0.23041387  0.85066341    -0.77000
O347        O  0.63607011  0.21818924  0.94655095    -0.78800
O348        O  0.57624645  0.24264664  0.77335811    -0.81500
C349        C  0.73377594  0.25768386  0.87522526     0.99200
C350        C  0.71865806  0.16930482  0.91945218     1.06700
O351        O  0.64070082  0.22638384  0.86326857    -1.10500
O352        O  0.56283408  0.18459086  0.82768782    -0.72900
O353        O  0.61419117  0.16414868  0.80646282    -0.76400
O354        O  0.71757240  0.26940683  0.90118686    -0.77100
C355        C  0.57871984  0.16063199  0.81084858     0.98200
O356        O  0.64150709  0.23077387  0.77622640    -0.75100
O357        O  0.57401145  0.23792526  0.89850530    -0.80300
C358        C  0.61879502  0.30826007  0.88043396     1.00800
C359        C  0.59799475  0.22842925  0.93693704     1.06700
O360        O  0.64284647  0.29164114  0.91434712    -0.75900
C361        C  0.60393115  0.24210075  0.75615825     1.05000
C362        C  0.64887385  0.34437813  0.62051075     0.32000
C363        C  0.61201880  0.29578632  0.65645114     0.32000
C364        C  0.61960963  0.36021716  0.64200119    -0.04200
C365        C  0.61928878  0.31673497  0.58853528    -0.04900
C366        C  0.68001941  0.32004577  0.65575110    -0.04800
C367        C  0.60100443  0.33518791  0.66020926    -0.04200
C368        C  0.60028173  0.29139160  0.60709517    -0.04900
C369        C  0.66087063  0.29547502  0.67442109    -0.04800
C370        C  0.57909498  0.35374897  0.68097500    -0.30200
N371        N  0.58299751  0.38963670  0.67541406     0.16300
C372        C  0.60804659  0.39386941  0.65187637    -0.30200
H373        H  0.62056885  0.41940445  0.64629121     0.18200
C374        C  0.58314610  0.26460536  0.57654099    -0.29200
N375        N  0.59038349  0.27350008  0.54027232     0.15000
C376        C  0.61269716  0.30483278  0.54734744    -0.29200
C377        C  0.68892466  0.26720006  0.68949208    -0.29500
N378        N  0.72479014  0.27369981  0.68180876     0.15500
H379        H  0.68263097  0.24247622  0.70333113     0.18100
C380        C  0.71928917  0.30537863  0.66003740    -0.29500
H381        H  0.74143401  0.31643159  0.64688995     0.18200
H382        H  0.62623422  0.31637292  0.52552421     0.18200
H383        H  0.56470660  0.34210589  0.70201629     0.18200
H384        H  0.56966376  0.23935149  0.58149525     0.18200
Fe385      Fe  0.78627720  0.44839403  0.72110082     1.65800
Fe386      Fe  0.87248177  0.48839250  0.71347838     1.73200
Fe387      Fe  0.77642951  0.99317885  0.62912030     1.54400
O388        O  0.73589044  0.44838787  0.61260600    -0.79600
O389        O  0.85713572  0.04227502  0.70546191    -0.77900
O390        O  0.75791827  0.41274566  0.67085062    -0.82100
O391        O  0.73248674  0.48040102  0.70057800    -0.77000
O392        O  0.81629838  0.46818505  0.60469542    -0.78800
O393        O  0.87612214  0.49263513  0.77788939    -0.81500
C394        C  0.71859327  0.50767557  0.67602317     0.99200
C395        C  0.73371306  0.41930112  0.63179284     1.06700
O396        O  0.81167053  0.47637655  0.68797820    -1.10500
O397        O  0.88953811  0.43458144  0.72355571    -0.72900
O398        O  0.83818358  0.41414043  0.74478343    -0.76400
O399        O  0.73480075  0.01940436  0.65006803    -0.77100
C400        C  0.87365413  0.41062293  0.74039613     0.98200
O401        O  0.81085964  0.48076456  0.77501641    -0.75100
O402        O  0.87835780  0.98791855  0.65274112    -0.80300
C403        C  0.83357504  0.05825347  0.67081835     1.00800
C404        C  0.85437389  0.47842374  0.61430915     1.06700
O405        O  0.80952531  0.04163582  0.63690378    -0.75900
C406        C  0.84843500  0.49209103  0.79508651     1.05000
Fe407      Fe  0.59345266  0.49069054  0.83793227     1.65800
Fe408      Fe  0.64263127  0.44770833  0.78167688     1.73200
Fe409      Fe  0.55144908  0.99152915  0.72725917     1.54400
O410        O  0.50561053  0.96556759  0.74276314    -0.79600
O411        O  0.64377497  0.47548663  0.72785612    -0.77900
O412        O  0.52721226  0.48172310  0.81317467    -0.82100
O413        O  0.58464051  0.04339026  0.82028330    -0.77000
O414        O  0.56070631  0.44600968  0.69258762    -0.78800
O415        O  0.68639054  0.48340827  0.81835374    -0.81500
C416        C  0.55734997  0.05748561  0.78661184     0.99200
C417        C  0.49838860  0.47123372  0.77716614     1.06700
O418        O  0.59589983  0.47698443  0.78273277    -1.10500
O419        O  0.64798010  0.41650903  0.83484247    -0.72900
O420        O  0.60053460  0.43820047  0.85976558    -0.76400
O421        O  0.53753130  0.03988109  0.75186602    -0.77100
C422        C  0.62449069  0.41325307  0.85644352     0.98200
O423        O  0.65966733  0.00358661  0.86596776    -0.75100
O424        O  0.60089753  0.41027478  0.74526319    -0.80300
C425        C  0.62864255  0.50549966  0.71003560     1.00800
C426        C  0.57994132  0.41605303  0.70554446     1.06700
O427        O  0.59508198  0.01941419  0.71109425    -0.75900
C428        C  0.68937794  0.50238197  0.85095176     1.05000
Fe429      Fe  0.85890546  0.24068475  0.71331443     1.65800
Fe430      Fe  0.80972496  0.19770768  0.76956913     1.73200
Fe431      Fe  0.90091016  0.24152134  0.82398682     1.54400
O432        O  0.94674384  0.21555280  0.80848257    -0.79600
O433        O  0.80858384  0.22548975  0.82338967    -0.77900
O434        O  0.92514519  0.23171645  0.73807377    -0.82100
O435        O  0.86771805  0.29338436  0.73096350    -0.77000
O436        O  0.89164932  0.19600416  0.85865859    -0.78800
O437        O  0.76596724  0.23340950  0.73289180    -0.81500
C438        C  0.89501407  0.30747671  0.76463326     0.99200
C439        C  0.95396740  0.22122380  0.77408159     1.06700
O440        O  0.85645738  0.22698013  0.76851336    -1.10500
O441        O  0.80437573  0.16650693  0.71640340    -0.72900
O442        O  0.85182572  0.18819389  0.69148478    -0.76400
O443        O  0.91483288  0.28987035  0.79937811    -0.77100
C444        C  0.82786898  0.16324784  0.69480648     0.98200
O445        O  0.79269091  0.25358256  0.68527689    -0.75100
O446        O  0.85145628  0.16027130  0.80598286    -0.80300
C447        C  0.82371999  0.25550173  0.84121052     1.00800
C448        C  0.87241417  0.16604820  0.84570144     1.06700
O449        O  0.85728151  0.26941240  0.84015174    -0.75900
C450        C  0.76298021  0.25238123  0.70029266     1.05000
C451        C  0.14876281  0.09416823  0.62055801     0.32000
C452        C  0.11196445  0.04556787  0.65654064     0.32000
C453        C  0.11952190  0.11000141  0.64208236    -0.04200
C454        C  0.11916799  0.06652267  0.58859700    -0.04900
C455        C  0.17993756  0.06983717  0.65577989    -0.04800
C456        C  0.10094350  0.08496713  0.66030939    -0.04200
C457        C  0.10018674  0.04117193  0.60717788    -0.04900
C458        C  0.16081586  0.04526189  0.67447332    -0.04800
C459        C  0.07904042  0.10352173  0.68108975    -0.30200
N460        N  0.08292672  0.13941255  0.67552871     0.16300
C461        C  0.10795436  0.14365123  0.65196725    -0.30200
H462        H  0.12046149  0.16918964  0.64637060     0.18200
C463        C  0.08315448  0.01432909  0.57667396    -0.29200
N464        N  0.09041967  0.02320054  0.54041456     0.15000
C465        C  0.11266902  0.05456346  0.54745443    -0.29200
C466        C  0.18886756  0.01697829  0.68950089    -0.29500
N467        N  0.22470604  0.02347347  0.68176700     0.15500
H468        H  0.18258639  0.49225064  0.70334207     0.18100
C469        C  0.21918745  0.05515968  0.66000622    -0.29500
H470        H  0.24130571  0.06621216  0.64682400     0.18200
H471        H  0.12624131  0.06608454  0.52565037     0.18200
H472        H  0.06466997  0.09187152  0.70214271     0.18200
H473        H  0.06974108  0.48905330  0.58166827     0.18200
Fe474      Fe  0.28615339  0.19820194  0.72098182     1.65800
Fe475      Fe  0.37231840  0.23820282  0.71329375     1.73200
Fe476      Fe  0.27622375  0.24300141  0.62899152     1.54400
O477        O  0.23567510  0.19821215  0.61251310    -0.79600
O478        O  0.35697759  0.29208616  0.70528354    -0.77900
O479        O  0.25780964  0.16254873  0.67073765    -0.82100
O480        O  0.23234130  0.23017877  0.70047388    -0.77000
O481        O  0.31605198  0.21801235  0.60450694    -0.78800
O482        O  0.37599747  0.24244063  0.77771491    -0.81500
C483        C  0.21843482  0.25746534  0.67594593     0.99200
C484        C  0.23354618  0.16911309  0.63170274     1.06700
O485        O  0.31150774  0.22619174  0.68783309    -1.10500
O486        O  0.38938485  0.18439593  0.72336489    -0.72900
O487        O  0.33807391  0.16396677  0.74465947    -0.76400
O488        O  0.23463420  0.26922588  0.64999803    -0.77100
C489        C  0.37352626  0.16044441  0.74023768     0.98200
O490        O  0.31074532  0.23058515  0.77488674    -0.75100
O491        O  0.37814610  0.23770822  0.65253850    -0.80300
C492        C  0.33341164  0.30806587  0.67064371     1.00800
C493        C  0.35414508  0.22820451  0.61411587     1.06700
O494        O  0.30932319  0.29145208  0.63674534    -0.75900
C495        C  0.34833159  0.24189769  0.79493842     1.05000
C496        C  0.30358642  0.34417221  0.93069118     0.31600
C497        C  0.34038617  0.29556877  0.89471163     0.32000
C498        C  0.33282620  0.36000347  0.90916469    -0.04200
C499        C  0.33318335  0.31652782  0.96265438    -0.04900
C500        C  0.27241260  0.31983953  0.89547170    -0.04800
C501        C  0.35140519  0.33496737  0.89093945    -0.04200
C502        C  0.35216549  0.29117554  0.94407485    -0.04900
C503        C  0.29153497  0.29526273  0.87678009    -0.04800
C504        C  0.37331074  0.35351932  0.87016050    -0.30200
N505        N  0.36942534  0.38941055  0.87572023     0.16300
C506        C  0.34439572  0.39365212  0.89927955    -0.30200
H507        H  0.33188981  0.41919168  0.90487557     0.18200
C508        C  0.36919191  0.26433032  0.97457730    -0.29200
N509        N  0.36192351  0.27320175  0.01083503     0.15000
C510        C  0.33967653  0.30456669  0.00379492    -0.29200
C511        C  0.26348390  0.26697954  0.86175358    -0.29500
N512        N  0.22764470  0.27347659  0.86948596     0.15500
H513        H  0.26976555  0.24225116  0.84791338     0.18100
C514        C  0.23316239  0.30516372  0.89124498    -0.29500
H515        H  0.21104330  0.31621802  0.90442535     0.18200
H516        H  0.32610079  0.31608775  0.52559668     0.18200
H517        H  0.38768340  0.34186712  0.84911019     0.18200
H518        H  0.38260231  0.23905258  0.96958226     0.18200
Fe519      Fe  0.16618202  0.44819390  0.83026947     1.65800
Fe520      Fe  0.08001800  0.48820429  0.83795155     1.73200
Fe521      Fe  0.17611258  0.99300273  0.92225261     1.54400
O522        O  0.21666585  0.44821455  0.93873196    -0.79600
O523        O  0.09536026  0.04208726  0.84595901    -0.77900
O524        O  0.19451784  0.41254122  0.88051712    -0.82100
O525        O  0.21999874  0.48016462  0.85077976    -0.77000
O526        O  0.13628664  0.46801544  0.94673987    -0.78800
O527        O  0.07634274  0.49243978  0.77353118    -0.81500
C528        C  0.23390181  0.00745636  0.87529937     0.99200
C529        C  0.21879053  0.41911137  0.91954716     1.06700
O530        O  0.14082786  0.47619006  0.86341359    -1.10500
O531        O  0.06294828  0.43439819  0.82788213    -0.72900
O532        O  0.11425850  0.41396362  0.80658915    -0.76400
O533        O  0.21769764  0.01922526  0.90123988    -0.77100
C534        C  0.07880577  0.41044434  0.81101038     0.98200
O535        O  0.14159588  0.48057755  0.77636391    -0.75100
O536        O  0.07419108  0.98771169  0.89870742    -0.80300
C537        C  0.11892544  0.05806723  0.88059846     1.00800
C538        C  0.09819260  0.47820720  0.93713020     1.06700
O539        O  0.14301069  0.04145318  0.91449839    -0.75900
C540        C  0.10401109  0.49189428  0.75631054     1.05000
Fe541      Fe  0.09354782  0.24051014  0.83811375     1.65800
Fe542      Fe  0.14263297  0.19747889  0.78179130     1.73200
Fe543      Fe  0.05144023  0.24131204  0.72744507     1.54400
O544        O  0.00563331  0.21538278  0.74302453    -0.79600
O545        O  0.14373695  0.22525106  0.72794814    -0.77900
O546        O  0.02729311  0.23162129  0.81341173    -0.82100
O547        O  0.08477604  0.29320895  0.82044834    -0.77000
O548        O  0.06064097  0.19577833  0.69274819    -0.78800
O549        O  0.18642586  0.23317259  0.81844263    -0.81500
C550        C  0.05744395  0.30729562  0.78679674     0.99200
C551        C  0.99843181  0.22114811  0.77741997     1.06700
O552        O  0.09592832  0.22676939  0.78289282    -1.10500
O553        O  0.14799781  0.16629531  0.83497187    -0.72900
O554        O  0.10060299  0.18801836  0.85995163    -0.76400
O555        O  0.03757626  0.28967866  0.75207303    -0.77100
C556        C  0.12453673  0.16305880  0.85660677     0.98200
O557        O  0.15977327  0.25336226  0.86610536    -0.75100
O558        O  0.10088218  0.16004299  0.74539402    -0.80300
C559        C  0.12857942  0.25525469  0.71011385     1.00800
C560        C  0.07989290  0.16582354  0.70568158     1.06700
O561        O  0.09503795  0.26917443  0.71121160    -0.75900
C562        C  0.18945274  0.25215238  0.85104855     1.05000
Fe563      Fe  0.35880290  0.49050694  0.71313651     1.65800
Fe564      Fe  0.30972079  0.44747425  0.76945898     1.73200
Fe565      Fe  0.40090938  0.99131107  0.82380647     1.54400
O566        O  0.44672474  0.96538958  0.80822818    -0.79600
O567        O  0.30861430  0.47524109  0.82330388    -0.77900
O568        O  0.42505898  0.48162150  0.73783779    -0.82100
O569        O  0.36756945  0.04320590  0.73080125    -0.77000
O570        O  0.39171404  0.44577432  0.85850128    -0.78800
O571        O  0.26592649  0.48316945  0.73281047    -0.81500
C572        C  0.39489615  0.05729502  0.76445402     0.99200
C573        C  0.45392389  0.47115403  0.77383064     1.06700
O574        O  0.35642391  0.47676588  0.76835799    -1.10500
O575        O  0.30435498  0.41629390  0.71627601    -0.72900
O576        O  0.35175076  0.43801510  0.69129781    -0.76400
O577        O  0.41476443  0.03968013  0.79917940    -0.77100
C578        C  0.32781484  0.41305708  0.69463990     0.98200
O579        O  0.29257668  0.00335690  0.68514566    -0.75100
O580        O  0.35147514  0.41003887  0.80585472    -0.80300
C581        C  0.32376584  0.50524584  0.84113665     1.00800
C582        C  0.37246253  0.41581982  0.84556757     1.06700
O583        O  0.35730546  0.01916843  0.84003932    -0.75900
C584        C  0.26289811  0.50214842  0.70020362     1.05000
C585        C  0.05089886  0.34523641  0.78863136    -0.11200
C586        C  0.05745165  0.37672327  0.79725301    -0.12800
C587        C  0.12000305  0.09664950  0.88077541    -0.11200
C588        C  0.12272681  0.12836857  0.87464264    -0.12800
C589        C  0.27113095  0.52386902  0.87404696    -0.11200
C590        C  0.30094386  0.52291976  0.86331975    -0.12800
C591        C  0.27992011  0.37123573  0.94517409    -0.11200
C592        C  0.25249630  0.39357479  0.94063889    -0.12800
C593        C  0.39487935  0.12672273  0.75399612    -0.11200
C594        C  0.40143469  0.09523623  0.76261852    -0.12800
C595        C  0.33233781  0.34664816  0.67046479    -0.11200
C596        C  0.32961979  0.37836777  0.67659926    -0.12800
C597        C  0.35697959  0.27096651  0.86998665    -0.11200
C598        C  0.35863289  0.25586321  0.83834487    -0.12800
C599        C  0.36802126  0.25085361  0.54681627    -0.11200
C600        C  0.36720360  0.23570382  0.57864842    -0.12800
C601        C  0.15139580  0.27293078  0.68792735    -0.11200
C602        C  0.18120649  0.27388131  0.67719702    -0.12800
C603        C  0.19984646  0.14357323  0.61060883    -0.11200
C604        C  0.17242681  0.12123126  0.60607328    -0.12800
C605        C  0.09371467  0.00586217  0.71290577    -0.11200
C606        C  0.09537095  0.02096672  0.68126613    -0.12800
C607        C  0.08513293  0.98570506  0.97259735    -0.11200
C608        C  0.08431712  0.00085361  0.50443111    -0.12800
C609        C  0.90156327  0.34541575  0.76279420    -0.11200
C610        C  0.89500535  0.37690079  0.75416285    -0.12800
C611        C  0.83245502  0.09683592  0.67065454    -0.11200
C612        C  0.82969462  0.12855068  0.67678980    -0.12800
C613        C  0.68136175  0.52411414  0.67723991    -0.11200
C614        C  0.65151265  0.52318541  0.68791141    -0.12800
C615        C  0.67257525  0.37143499  0.60606538    -0.11200
C616        C  0.70001832  0.39376686  0.61065530    -0.12800
C617        C  0.55736893  0.12691050  0.79708129    -0.11200
C618        C  0.55080739  0.09542593  0.78845021    -0.12800
C619        C  0.61991241  0.34684245  0.88060028    -0.11200
C620        C  0.62266878  0.37855737  0.87446434    -0.12800
C621        C  0.59367312  0.25608172  0.71276355    -0.11200
C622        C  0.59538354  0.27118953  0.68114816    -0.12800
C623        C  0.58496007  0.23600614  0.97240402    -0.11200
C624        C  0.58420160  0.25117812  0.50424878    -0.12800
C625        C  0.77100629  0.27412327  0.87400972    -0.11200
C626        C  0.80085391  0.27319135  0.86333645    -0.12800
C627        C  0.75234785  0.14376623  0.94059200    -0.11200
C628        C  0.77978787  0.12143056  0.94518246    -0.12800
C629        C  0.85697549  0.02118271  0.87009374    -0.11200
C630        C  0.85868904  0.00607368  0.83848008    -0.12800
C631        C  0.86816488  0.00117153  0.54699628    -0.11200
C632        C  0.86740787  0.98600020  0.57884186    -0.12800
C633        C  0.80348692  0.59437232  0.43073498     0.32000
C634        C  0.84034008  0.54577995  0.39479128     0.32000
C635        C  0.83275144  0.61021069  0.40924567    -0.04200
C636        C  0.83307065  0.56672688  0.46270843    -0.04900
C637        C  0.77234028  0.57004275  0.39549298    -0.04800
C638        C  0.85135567  0.58518142  0.39103558    -0.04200
C639        C  0.85207674  0.54138320  0.44414709    -0.04900
C640        C  0.79148803  0.54547148  0.37682119    -0.04800
C641        C  0.87326317  0.60374300  0.37026889    -0.30200
N642        N  0.86936062  0.63963072  0.37583170     0.16300
C643        C  0.84431341  0.64386308  0.39937147    -0.30200
H644        H  0.83179096  0.66939798  0.40495803     0.18200
C645        C  0.86921555  0.51459740  0.47470167    -0.29200
N646        N  0.86198036  0.52349280  0.51097165     0.15000
C647        C  0.83966560  0.55482560  0.50389722    -0.29200
C648        C  0.76343296  0.51719811  0.36174933    -0.29500
N649        N  0.72756821  0.52369926  0.36943409     0.15500
H650        H  0.76972592  0.99247412  0.34790954     0.18100
C651        C  0.73307054  0.55537737  0.39120707    -0.29500
H652        H  0.71092689  0.56643076  0.40435642     0.18200
H653        H  0.82613079  0.56636698  0.02572244     0.18200
H654        H  0.88764973  0.59210027  0.34922510     0.18200
H655        H  0.88269906  0.98934371  0.46974745     0.18200
Fe656      Fe  0.66609441  0.69840402  0.33014265     1.65800
Fe657      Fe  0.57988890  0.73840122  0.33776940     1.73200
Fe658      Fe  0.67594045  0.74318214  0.42212932     1.54400
O659        O  0.71647673  0.69838847  0.43864281    -0.79600
O660        O  0.59523410  0.79228320  0.34578988    -0.77900
O661        O  0.69446040  0.66275471  0.38039040    -0.82100
O662        O  0.71988028  0.73041376  0.35066365    -0.77000
O663        O  0.63607014  0.71818904  0.44655117    -0.78800
O664        O  0.57624632  0.74264663  0.27335847    -0.81500
C665        C  0.73377579  0.75768379  0.37522545     0.99200
C666        C  0.71865783  0.66930465  0.41945219     1.06700
O667        O  0.64070067  0.72638379  0.36326880    -1.10500
O668        O  0.56283408  0.68459077  0.32768825    -0.72900
O669        O  0.61419098  0.66414870  0.30646289    -0.76400
O670        O  0.71757218  0.76940683  0.40118694    -0.77100
C671        C  0.57871972  0.66063198  0.31084876     0.98200
O672        O  0.64150695  0.73077401  0.27622662    -0.75100
O673        O  0.57401150  0.73792526  0.39850570    -0.80300
C674        C  0.61879499  0.80825997  0.38043429     1.00800
C675        C  0.59799483  0.72842917  0.43693738     1.06700
O676        O  0.64284645  0.79164098  0.41434740    -0.75900
C677        C  0.60393096  0.74210079  0.25615850     1.05000
C678        C  0.64887372  0.84437806  0.12051098     0.32000
C679        C  0.61201867  0.79578619  0.15645131     0.32000
C680        C  0.61960968  0.86021709  0.14200156    -0.04200
C681        C  0.61928850  0.81673497  0.08853547    -0.04900
C682        C  0.68001923  0.82004566  0.15575126    -0.04800
C683        C  0.60100440  0.83518781  0.16020952    -0.04200
C684        C  0.60028150  0.79139153  0.10709534    -0.04900
C685        C  0.66087047  0.79547485  0.17442120    -0.04800
C686        C  0.57909494  0.85374892  0.18097519    -0.30200
N687        N  0.58299756  0.88963662  0.17541435     0.16300
C688        C  0.60804673  0.89386938  0.15187675    -0.30200
H689        H  0.62056893  0.91940428  0.14629164     0.18200
C690        C  0.58314602  0.76460517  0.07654122    -0.29200
N691        N  0.59038332  0.77350006  0.04027252     0.15000
C692        C  0.61269688  0.80483277  0.04734767    -0.29200
C693        C  0.68892456  0.76719999  0.18949220    -0.29500
N694        N  0.72479000  0.77369975  0.18180893     0.15500
H695        H  0.68263084  0.74247591  0.20333137     0.18100
C696        C  0.71928901  0.80537861  0.16003756    -0.29500
H697        H  0.74143378  0.81643162  0.14689011     0.18200
H698        H  0.62623409  0.81637295  0.02552437     0.18200
H699        H  0.56470645  0.84210581  0.20201649     0.18200
H700        H  0.56966401  0.73935137  0.08149547     0.18200
Fe701      Fe  0.78627716  0.94839400  0.22110093     1.65800
Fe702      Fe  0.87248173  0.98839235  0.21347845     1.73200
Fe703      Fe  0.77642972  0.49317896  0.12912026     1.54400
O704        O  0.73589045  0.94838768  0.11260606    -0.79600
O705        O  0.85713593  0.54227504  0.20546183    -0.77900
O706        O  0.75791810  0.91274561  0.17085084    -0.82100
O707        O  0.73248671  0.98040094  0.20057805    -0.77000
O708        O  0.81629821  0.96818505  0.10469535    -0.78800
O709        O  0.87612203  0.99263509  0.27788945    -0.81500
C710        C  0.71859323  0.00767551  0.17602325     0.99200
C711        C  0.73371302  0.91930098  0.13179299     1.06700
O712        O  0.81167046  0.97637649  0.18797823    -1.10500
O713        O  0.88953812  0.93458135  0.22355587    -0.72900
O714        O  0.83818358  0.91414041  0.24478358    -0.76400
O715        O  0.73480097  0.51940453  0.15006805    -0.77100
C716        C  0.87365413  0.91062288  0.24039630     0.98200
O717        O  0.81085955  0.98076453  0.27501652    -0.75100
O718        O  0.87835801  0.48791834  0.15274114    -0.80300
C719        C  0.83357512  0.55825354  0.17081835     1.00800
C720        C  0.85437373  0.97842368  0.11430912     1.06700
O721        O  0.80952551  0.54163594  0.13690368    -0.75900
C722        C  0.84843491  0.99209099  0.29508660     1.05000
Fe723      Fe  0.59345284  0.99069053  0.33793260     1.65800
Fe724      Fe  0.64263146  0.94770818  0.28167732     1.73200
Fe725      Fe  0.55144899  0.49152926  0.22725871     1.54400
O726        O  0.50561037  0.46556767  0.24276263    -0.79600
O727        O  0.64377523  0.97548660  0.22785667    -0.77900
O728        O  0.52721252  0.98172302  0.31317508    -0.82100
O729        O  0.58464035  0.54339033  0.32028288    -0.77000
O730        O  0.56070636  0.94600955  0.19258801    -0.78800
O731        O  0.68639068  0.98340801  0.31835426    -0.81500
C732        C  0.55734976  0.55748570  0.28661148     0.99200
C733        C  0.49838884  0.97123360  0.27716660     1.06700
O734        O  0.59590003  0.97698441  0.28273307    -1.10500
O735        O  0.64798026  0.91650890  0.33484291    -0.72900
O736        O  0.60053486  0.93820048  0.35976604    -0.76400
O737        O  0.53753116  0.53988122  0.25186559    -0.77100
C738        C  0.62449088  0.91325303  0.35644400     0.98200
O739        O  0.65966712  0.50358662  0.36596728    -0.75100
O740        O  0.60089781  0.91027464  0.24526352    -0.80300
C741        C  0.62864273  0.00549958  0.21003600     1.00800
C742        C  0.57994146  0.91605294  0.20554480     1.06700
O743        O  0.59508194  0.51941425  0.21109375    -0.75900
C744        C  0.68937806  0.00238188  0.35095215     1.05000
Fe745      Fe  0.85890537  0.74068478  0.21331454     1.65800
Fe746      Fe  0.80972496  0.69770766  0.26956932     1.73200
Fe747      Fe  0.90091010  0.74152136  0.32398698     1.54400
O748        O  0.94674387  0.71555296  0.30848277    -0.79600
O749        O  0.80858379  0.72548972  0.32338983    -0.77900
O750        O  0.92514515  0.73171645  0.23807388    -0.82100
O751        O  0.86771784  0.79338443  0.23096366    -0.77000
O752        O  0.89164935  0.69600414  0.35865875    -0.78800
O753        O  0.76596709  0.73340945  0.23289200    -0.81500
C754        C  0.89501396  0.80747674  0.26463340     0.99200
C755        C  0.95396738  0.72122384  0.27408173     1.06700
O756        O  0.85645738  0.72698009  0.26851350    -1.10500
O757        O  0.80437591  0.66650689  0.21640373    -0.72900
O758        O  0.85182556  0.68819399  0.19148471    -0.76400
O759        O  0.91483269  0.78987037  0.29937825    -0.77100
C760        C  0.82786900  0.66324788  0.19480663     0.98200
O761        O  0.79269073  0.75358239  0.18527702    -0.75100
O762        O  0.85145629  0.66027130  0.30598302    -0.80300
C763        C  0.82371991  0.75550170  0.34121068     1.00800
C764        C  0.87241418  0.66604818  0.34570159     1.06700
O765        O  0.85728141  0.76941239  0.34015188    -0.75900
C766        C  0.76298009  0.75238116  0.20029282     1.05000
C767        C  0.14876263  0.59416824  0.12055797     0.32000
C768        C  0.11196428  0.54556785  0.15654059     0.32000
C769        C  0.11952186  0.61000141  0.14208248    -0.04200
C770        C  0.11916769  0.56652275  0.08859694    -0.04900
C771        C  0.17993736  0.56983710  0.15577972    -0.04800
C772        C  0.10094346  0.58496714  0.16030951    -0.04200
C773        C  0.10018646  0.54117199  0.10717782    -0.04900
C774        C  0.16081568  0.54526178  0.17447313    -0.04800
C775        C  0.07904043  0.60352178  0.18108988    -0.30200
N776        N  0.08292674  0.63941257  0.17552885     0.16300
C777        C  0.10795439  0.64365125  0.15196739    -0.30200
H778        H  0.12046150  0.66918963  0.14637070     0.18200
C779        C  0.08315438  0.51432903  0.07667401    -0.29200
N780        N  0.09041957  0.52320052  0.04041455     0.15000
C781        C  0.11266878  0.55456346  0.04745447    -0.29200
C782        C  0.18886743  0.51697824  0.18950066    -0.29500
N783        N  0.22470587  0.52347345  0.18176675     0.15500
H784        H  0.18258660  0.99225083  0.20334250     0.18100
C785        C  0.21918727  0.55515970  0.16000603    -0.29500
H786        H  0.24130546  0.56621222  0.14682381     0.18200
H787        H  0.12624127  0.56608469  0.02565022     0.18200
H788        H  0.06466987  0.59187156  0.20214291     0.18200
H789        H  0.06974115  0.98905340  0.08166822     0.18200
Fe790      Fe  0.28615314  0.69820199  0.22098191     1.65800
Fe791      Fe  0.37231813  0.73820286  0.21329378     1.73200
Fe792      Fe  0.27622348  0.74300145  0.12899164     1.54400
O793        O  0.23567479  0.69821220  0.11251317    -0.79600
O794        O  0.35697747  0.79208617  0.20528359    -0.77900
O795        O  0.25780934  0.66254882  0.17073774    -0.82100
O796        O  0.23234108  0.73017885  0.20047407    -0.77000
O797        O  0.31605174  0.71801250  0.10450698    -0.78800
O798        O  0.37599723  0.74244082  0.27771490    -0.81500
C799        C  0.21843465  0.75746542  0.17594611     0.99200
C800        C  0.23354588  0.66911314  0.13170282     1.06700
O801        O  0.31150745  0.72619177  0.18783316    -1.10500
O802        O  0.38938473  0.68439604  0.22336509    -0.72900
O803        O  0.33807363  0.66396667  0.24465931    -0.76400
O804        O  0.23463397  0.76922589  0.14999817    -0.77100
C805        C  0.37352609  0.66044442  0.24023769     0.98200
O806        O  0.31074518  0.73058515  0.27488691    -0.75100
O807        O  0.37814590  0.73770819  0.15253859    -0.80300
C808        C  0.33341145  0.80806589  0.17064384     1.00800
C809        C  0.35414490  0.72820455  0.11411594     1.06700
O810        O  0.30932289  0.79145213  0.13674553    -0.75900
C811        C  0.34833143  0.74189775  0.29493851     1.05000
C812        C  0.30358634  0.84417225  0.43069129     0.31600
C813        C  0.34038614  0.79556883  0.39471179     0.32000
C814        C  0.33282611  0.86000356  0.40916483    -0.04200
C815        C  0.33318323  0.81652785  0.46265450    -0.04900
C816        C  0.27241253  0.81983960  0.39547174    -0.04800
C817        C  0.35140517  0.83496745  0.39093967    -0.04200
C818        C  0.35216534  0.79117555  0.44407498    -0.04900
C819        C  0.29153495  0.79526277  0.37678020    -0.04800
C820        C  0.37331085  0.85351942  0.37016087    -0.30200
N821        N  0.36942542  0.88941067  0.37572056     0.16300
C822        C  0.34439571  0.89365215  0.39927976    -0.30200
H823        H  0.33188974  0.91919201  0.40487590     0.18200
C824        C  0.36919187  0.76433035  0.47457744    -0.29200
N825        N  0.36192356  0.77320189  0.51083522     0.15000
C826        C  0.33967653  0.80456675  0.50379505    -0.29200
C827        C  0.26348393  0.76697954  0.36175376    -0.29500
N828        N  0.22764471  0.77347663  0.36948610     0.15500
H829        H  0.26976560  0.74225115  0.34791359     0.18100
C830        C  0.23316237  0.80516378  0.39124496    -0.29500
H831        H  0.21104303  0.81621821  0.40442542     0.18200
H832        H  0.32610046  0.81608772  0.02559649     0.18200
H833        H  0.38768366  0.84186722  0.34911067     0.18200
H834        H  0.38260216  0.73905272  0.46958241     0.18200
Fe835      Fe  0.16618202  0.94819393  0.33026955     1.65800
Fe836      Fe  0.08001795  0.98820434  0.33795149     1.73200
Fe837      Fe  0.17611260  0.49300266  0.42225249     1.54400
O838        O  0.21666563  0.94821451  0.43873212    -0.79600
O839        O  0.09536029  0.54208725  0.34595909    -0.77900
O840        O  0.19451785  0.91254122  0.38051724    -0.82100
O841        O  0.21999869  0.98016469  0.35077973    -0.77000
O842        O  0.13628643  0.96801541  0.44673972    -0.78800
O843        O  0.07634273  0.99243971  0.27353111    -0.81500
C844        C  0.23390189  0.50745627  0.37529927     0.99200
C845        C  0.21879047  0.91911137  0.41954730     1.06700
O846        O  0.14082779  0.97619007  0.36341365    -1.10500
O847        O  0.06294824  0.93439826  0.32788218    -0.72900
O848        O  0.11425852  0.91396364  0.30658931    -0.76400
O849        O  0.21769769  0.51922517  0.40123975    -0.77100
C850        C  0.07880575  0.91044439  0.31101047     0.98200
O851        O  0.14159595  0.98057766  0.27636396    -0.75100
O852        O  0.07419110  0.48771158  0.39870748    -0.80300
C853        C  0.11892555  0.55806720  0.38059851     1.00800
C854        C  0.09819247  0.97820733  0.43713009     1.06700
O855        O  0.14301074  0.54145312  0.41449843    -0.75900
C856        C  0.10401113  0.99189433  0.25631054     1.05000
Fe857      Fe  0.09354782  0.74051013  0.33811390     1.65800
Fe858      Fe  0.14263299  0.69747891  0.28179144     1.73200
Fe859      Fe  0.05144022  0.74131202  0.22744523     1.54400
O860        O  0.00563329  0.71538276  0.24302468    -0.79600
O861        O  0.14373694  0.72525108  0.22794822    -0.77900
O862        O  0.02729309  0.73162127  0.31341188    -0.82100
O863        O  0.08477604  0.79320896  0.32044849    -0.77000
O864        O  0.06064097  0.69577832  0.19274835    -0.78800
O865        O  0.18642580  0.73317273  0.31844268    -0.81500
C866        C  0.05744396  0.80729564  0.28679689     0.99200
C867        C  0.99843179  0.72114810  0.27742011     1.06700
O868        O  0.09592832  0.72676937  0.28289296    -1.10500
O869        O  0.14799784  0.66629531  0.33497202    -0.72900
O870        O  0.10060300  0.68801834  0.35995178    -0.76400
O871        O  0.03757626  0.78967866  0.25207319    -0.77100
C872        C  0.12453674  0.66305879  0.35660692     0.98200
O873        O  0.15977329  0.75336228  0.36610554    -0.75100
O874        O  0.10088221  0.66004298  0.24539418    -0.80300
C875        C  0.12857934  0.75525469  0.21011390     1.00800
C876        C  0.07989292  0.66582355  0.20568173     1.06700
O877        O  0.09503790  0.76917441  0.21121173    -0.75900
C878        C  0.18945272  0.75215246  0.35104865     1.05000
Fe879      Fe  0.35880313  0.99050699  0.21313696     1.65800
Fe880      Fe  0.30972092  0.94747424  0.26945934     1.73200
Fe881      Fe  0.40090928  0.49131106  0.32380621     1.54400
O882        O  0.44672462  0.46538961  0.30822784    -0.79600
O883        O  0.30861443  0.97524104  0.32330431    -0.77900
O884        O  0.42505929  0.98162164  0.23783830    -0.82100
O885        O  0.36756936  0.54320590  0.23080108    -0.77000
O886        O  0.39171413  0.94577445  0.35850162    -0.78800
O887        O  0.26592654  0.98316938  0.23281076    -0.81500
C888        C  0.39489605  0.55729502  0.26445385     0.99200
C889        C  0.45392415  0.97115403  0.27383112     1.06700
O890        O  0.35642408  0.97676590  0.26835839    -1.10500
O891        O  0.30435500  0.91629404  0.21627623    -0.72900
O892        O  0.35175100  0.93801512  0.19129825    -0.76400
O893        O  0.41476431  0.53968015  0.29917923    -0.77100
C894        C  0.32781499  0.91305715  0.19464025     0.98200
O895        O  0.29257655  0.50335696  0.18514539    -0.75100
O896        O  0.35147544  0.91003893  0.30585504    -0.80300
C897        C  0.32376585  0.00524590  0.34113686     1.00800
C898        C  0.37246268  0.91581992  0.34556792     1.06700
O899        O  0.35730537  0.51916841  0.34003912    -0.75900
C900        C  0.26289823  0.00214844  0.20020398     1.05000
C901        C  0.05089886  0.84523647  0.28863145    -0.11200
C902        C  0.05745157  0.87672335  0.29725300    -0.12800
C903        C  0.12000311  0.59664948  0.38077551    -0.11200
C904        C  0.12272681  0.62836856  0.37464278    -0.12800
C905        C  0.27113090  0.02386909  0.37404704    -0.11200
C906        C  0.30094385  0.02291986  0.36331992    -0.12800
C907        C  0.27992006  0.87123576  0.44517426    -0.11200
C908        C  0.25249627  0.89357483  0.44063906    -0.12800
C909        C  0.39487925  0.62672273  0.25399600    -0.11200
C910        C  0.40143459  0.59523622  0.26261834    -0.12800
C911        C  0.33233779  0.84664820  0.17046497    -0.11200
C912        C  0.32961993  0.87836780  0.17659963    -0.12800
C913        C  0.35697958  0.77096661  0.36998678    -0.11200
C914        C  0.35863280  0.75586325  0.33834500    -0.12800
C915        C  0.36802118  0.75085369  0.04681638    -0.11200
C916        C  0.36720352  0.73570385  0.07864854    -0.12800
C917        C  0.15139569  0.77293090  0.18792747    -0.11200
C918        C  0.18120635  0.77388142  0.17719716    -0.12800
C919        C  0.19984626  0.64357323  0.11060885    -0.11200
C920        C  0.17242658  0.62123126  0.10607319    -0.12800
C921        C  0.09371467  0.50586219  0.21290578    -0.11200
C922        C  0.09537081  0.52096669  0.18126605    -0.12800
C923        C  0.08513316  0.48570504  0.47259745    -0.11200
C924        C  0.08431711  0.50085359  0.00443115    -0.12800
C925        C  0.90156330  0.84541574  0.26279438    -0.11200
C926        C  0.89500537  0.87690077  0.25416301    -0.12800
C927        C  0.83245500  0.59683598  0.17065468    -0.11200
C928        C  0.82969463  0.62855074  0.17678997    -0.12800
C929        C  0.68136176  0.02411403  0.17724010    -0.11200
C930        C  0.65151279  0.02318527  0.18791179    -0.12800
C931        C  0.67257519  0.87143489  0.10606559    -0.11200
C932        C  0.70001833  0.89376666  0.11065544    -0.12800
C933        C  0.55736873  0.62691055  0.29708123    -0.11200
C934        C  0.55080707  0.59542600  0.28845000    -0.12800
C935        C  0.61991249  0.84684237  0.38060072    -0.11200
C936        C  0.62266892  0.87855731  0.37446482    -0.12800
C937        C  0.59367284  0.75608169  0.21276374    -0.11200
C938        C  0.59538340  0.77118942  0.18114835    -0.12800
C939        C  0.58496013  0.73600608  0.47240432    -0.11200
C940        C  0.58420166  0.75117804  0.00424911    -0.12800
C941        C  0.77100624  0.77412314  0.37401002    -0.11200
C942        C  0.80085383  0.77319128  0.36333668    -0.12800
C943        C  0.75234769  0.64376611  0.44059188    -0.11200
C944        C  0.77978767  0.62143042  0.44518232    -0.12800
C945        C  0.85697542  0.52118271  0.37009360    -0.11200
C946        C  0.85868911  0.50607370  0.33847999    -0.12800
C947        C  0.86816504  0.50117147  0.04699629    -0.11200
C948        C  0.86740799  0.48600009  0.07884183    -0.12800
C949        C  0.80348697  0.59437238  0.93073504     0.32000
C950        C  0.84034008  0.54577997  0.89479134     0.32000
C951        C  0.83275158  0.61021069  0.90924578    -0.04200
C952        C  0.83307066  0.56672694  0.96270852    -0.04900
C953        C  0.77234031  0.57004278  0.89549304    -0.04800
C954        C  0.85135573  0.58518141  0.89103564    -0.04200
C955        C  0.85207668  0.54138321  0.94414714    -0.04900
C956        C  0.79148805  0.54547154  0.87682121    -0.04800
C957        C  0.87326322  0.60374294  0.87026882    -0.30200
N958        N  0.86936063  0.63963070  0.87583166     0.16300
C959        C  0.84431351  0.64386306  0.89937153    -0.30200
H960        H  0.83179107  0.66939790  0.90495806     0.18200
C961        C  0.86921546  0.51459741  0.97470172    -0.29200
N962        N  0.86198032  0.52349283  0.01097173     0.15000
C963        C  0.83966566  0.55482566  0.00389730    -0.29200
C964        C  0.76343306  0.51719808  0.86174946    -0.29500
N965        N  0.72756832  0.52369920  0.86943426     0.15500
H966        H  0.76972584  0.99247409  0.84790939     0.18100
C967        C  0.73307064  0.55537731  0.89120721    -0.29500
H968        H  0.71092693  0.56643073  0.90435653     0.18200
H969        H  0.82613077  0.56636681  0.52572220     0.18200
H970        H  0.88764956  0.59210035  0.84922518     0.18200
H971        H  0.88269907  0.98934374  0.96974736     0.18200
Fe972      Fe  0.66609448  0.69840399  0.83014274     1.65800
Fe973      Fe  0.57988879  0.73840119  0.83776931     1.73200
Fe974      Fe  0.67594037  0.74318215  0.92212930     1.54400
O975        O  0.71647662  0.69838848  0.93864289    -0.79600
O976        O  0.59523408  0.79228321  0.84578990    -0.77900
O977        O  0.69446055  0.66275473  0.88039047    -0.82100
O978        O  0.71988035  0.73041368  0.85066377    -0.77000
O979        O  0.63607008  0.71818904  0.94655115    -0.78800
O980        O  0.57624624  0.74264659  0.77335836    -0.81500
C981        C  0.73377583  0.75768374  0.87522550     0.99200
C982        C  0.71865784  0.66930469  0.91945228     1.06700
O983        O  0.64070058  0.72638372  0.86326880    -1.10500
O984        O  0.56283401  0.68459075  0.82768813    -0.72900
O985        O  0.61419101  0.66414867  0.80646290    -0.76400
O986        O  0.71757218  0.76940682  0.90118694    -0.77100
C987        C  0.57871974  0.66063193  0.81084878     0.98200
O988        O  0.64150698  0.73077399  0.77622677    -0.75100
O989        O  0.57401140  0.73792521  0.89850566    -0.80300
C990        C  0.61879498  0.80826000  0.88043433     1.00800
C991        C  0.59799477  0.72842913  0.93693736     1.06700
O992        O  0.64284641  0.79164102  0.91434744    -0.75900
C993        C  0.60393100  0.74210074  0.75615853     1.05000
C994        C  0.64887368  0.84437805  0.62051093     0.32000
C995        C  0.61201867  0.79578624  0.65645134     0.32000
C996        C  0.61960954  0.86021708  0.64200144    -0.04200
C997        C  0.61928850  0.81673495  0.58853547    -0.04900
C998        C  0.68001928  0.82004569  0.65575126    -0.04800
C999        C  0.60100428  0.83518782  0.66020945    -0.04200
C1000       C  0.60028148  0.79139155  0.60709536    -0.04900
C1001       C  0.66087053  0.79547496  0.67442128    -0.04800
C1002       C  0.57909493  0.85374890  0.68097526    -0.30200
N1003       N  0.58299752  0.88963664  0.67541438     0.16300
C1004       C  0.60804658  0.89386931  0.65187669    -0.30200
H1005       H  0.62056894  0.91940442  0.64629158     0.18200
C1006       C  0.58314603  0.76460516  0.57654125    -0.29200
N1007       N  0.59038346  0.77349996  0.54027261     0.15000
C1008       C  0.61269704  0.80483269  0.54734771    -0.29200
C1009       C  0.68892461  0.76720002  0.68949232    -0.29500
N1010       N  0.72479005  0.77369971  0.68180890     0.15500
H1011       H  0.68263096  0.74247623  0.70333145     0.18100
C1012       C  0.71928903  0.80537852  0.66003748    -0.29500
H1013       H  0.74143382  0.81643148  0.64688997     0.18200
H1014       H  0.62623420  0.81637279  0.52552453     0.18200
H1015       H  0.56470662  0.84210581  0.70201661     0.18200
H1016       H  0.56966395  0.73935140  0.58149550     0.18200
Fe1017     Fe  0.78627711  0.94839396  0.72110095     1.65800
Fe1018     Fe  0.87248162  0.98839243  0.71347839     1.73200
Fe1019     Fe  0.77642971  0.49317893  0.62912029     1.54400
O1020       O  0.73589032  0.94838768  0.61260597    -0.79600
O1021       O  0.85713588  0.54227511  0.70546194    -0.77900
O1022       O  0.75791812  0.91274558  0.67085072    -0.82100
O1023       O  0.73248680  0.98040097  0.70057818    -0.77000
O1024       O  0.81629819  0.96818516  0.60469536    -0.78800
O1025       O  0.87612199  0.99263508  0.77788940    -0.81500
C1026       C  0.71859326  0.00767550  0.67602335     0.99200
C1027       C  0.73371294  0.91930097  0.63179288     1.06700
O1028       O  0.81167039  0.97637647  0.68797825    -1.10500
O1029       O  0.88953796  0.93458136  0.72355572    -0.72900
O1030       O  0.83818346  0.91414037  0.74478350    -0.76400
O1031       O  0.73480095  0.51940449  0.65006803    -0.77100
C1032       C  0.87365400  0.91062287  0.74039620     0.98200
O1033       O  0.81085952  0.98076452  0.77501651    -0.75100
O1034       O  0.87835792  0.48791861  0.65274111    -0.80300
C1035       C  0.83357524  0.55825354  0.67081835     1.00800
C1036       C  0.85437374  0.97842375  0.61430913     1.06700
O1037       O  0.80952565  0.54163587  0.63690374    -0.75900
C1038       C  0.84843490  0.99209095  0.79508659     1.05000
Fe1039     Fe  0.59345279  0.99069050  0.83793264     1.65800
Fe1040     Fe  0.64263141  0.94770827  0.78167728     1.73200
Fe1041     Fe  0.55144901  0.49152922  0.72725879     1.54400
O1042       O  0.50561030  0.46556766  0.74276266    -0.79600
O1043       O  0.64377517  0.97548667  0.72785665    -0.77900
O1044       O  0.52721248  0.98172301  0.81317514    -0.82100
O1045       O  0.58464047  0.54339031  0.82028294    -0.77000
O1046       O  0.56070637  0.94600961  0.69258808    -0.78800
O1047       O  0.68639078  0.98340802  0.81835429    -0.81500
C1048       C  0.55734984  0.55748567  0.78661154     0.99200
C1049       C  0.49838885  0.97123366  0.77716663     1.06700
O1050       O  0.59589993  0.97698442  0.78273313    -1.10500
O1051       O  0.64798030  0.91650893  0.83484279    -0.72900
O1052       O  0.60053484  0.93820040  0.85976592    -0.76400
O1053       O  0.53753127  0.53988120  0.75186565    -0.77100
C1054       C  0.62449092  0.91325299  0.85644386     0.98200
O1055       O  0.65966725  0.50358654  0.86596747    -0.75100
O1056       O  0.60089778  0.91027470  0.74526354    -0.80300
C1057       C  0.62864260  0.00549961  0.71003595     1.00800
C1058       C  0.57994147  0.91605298  0.70554485     1.06700
O1059       O  0.59508196  0.51941428  0.71109392    -0.75900
C1060       C  0.68937807  0.00238191  0.85095212     1.05000
Fe1061     Fe  0.85890537  0.74068475  0.71331464     1.65800
Fe1062     Fe  0.80972501  0.69770762  0.76956929     1.73200
Fe1063     Fe  0.90091008  0.74152132  0.82398693     1.54400
O1064       O  0.94674375  0.71555290  0.80848265    -0.79600
O1065       O  0.80858374  0.72548969  0.82338973    -0.77900
O1066       O  0.92514507  0.73171641  0.73807380    -0.82100
O1067       O  0.86771792  0.79338441  0.73096373    -0.77000
O1068       O  0.89164942  0.69600411  0.85865879    -0.78800
O1069       O  0.76596718  0.73340945  0.73289207    -0.81500
C1070       C  0.89501398  0.80747672  0.76463349     0.99200
C1071       C  0.95396728  0.72122379  0.77408161     1.06700
O1072       O  0.85645736  0.72698009  0.76851353    -1.10500
O1073       O  0.80437590  0.66650684  0.71640369    -0.72900
O1074       O  0.85182559  0.68819396  0.69148481    -0.76400
O1075       O  0.91483280  0.78987030  0.79937826    -0.77100
C1076       C  0.82786899  0.66324784  0.69480664     0.98200
O1077       O  0.79269083  0.75358238  0.68527714    -0.75100
O1078       O  0.85145644  0.66027130  0.80598300    -0.80300
C1079       C  0.82371989  0.75550165  0.84121064     1.00800
C1080       C  0.87241423  0.66604817  0.84570161     1.06700
O1081       O  0.85728138  0.76941235  0.84015181    -0.75900
C1082       C  0.76298015  0.75238114  0.70029290     1.05000
C1083       C  0.14876262  0.59416826  0.62055793     0.32000
C1084       C  0.11196433  0.54556787  0.65654061     0.32000
C1085       C  0.11952183  0.61000142  0.64208242    -0.04200
C1086       C  0.11916774  0.56652272  0.58859692    -0.04900
C1087       C  0.17993737  0.56983712  0.65577967    -0.04800
C1088       C  0.10094351  0.58496715  0.66030955    -0.04200
C1089       C  0.10018649  0.54117198  0.60717782    -0.04900
C1090       C  0.16081570  0.54526181  0.67447311    -0.04800
C1091       C  0.07904041  0.60352176  0.68108990    -0.30200
N1092       N  0.08292681  0.63941258  0.67552888     0.16300
C1093       C  0.10795432  0.64365124  0.65196729    -0.30200
H1094       H  0.12046139  0.66918968  0.64637050     0.18200
C1095       C  0.08315431  0.51432906  0.57667396    -0.29200
N1096       N  0.09041957  0.52320051  0.54041456     0.15000
C1097       C  0.11266887  0.55456343  0.54745441    -0.29200
C1098       C  0.18886738  0.51697822  0.68950058    -0.29500
N1099       N  0.22470582  0.52347341  0.68176668     0.15500
H1100       H  0.18258661  0.99225081  0.70334232     0.18100
C1101       C  0.21918721  0.55515962  0.66000591    -0.29500
H1102       H  0.24130544  0.56621213  0.64682368     0.18200
H1103       H  0.12624121  0.56608448  0.52565040     0.18200
H1104       H  0.06466984  0.59187165  0.70214271     0.18200
H1105       H  0.06974113  0.98905321  0.58166824     0.18200
Fe1106     Fe  0.28615311  0.69820200  0.72098181     1.65800
Fe1107     Fe  0.37231827  0.73820287  0.71329386     1.73200
Fe1108     Fe  0.27622366  0.74300148  0.62899171     1.54400
O1109       O  0.23567493  0.69821227  0.61251316    -0.79600
O1110       O  0.35697749  0.79208619  0.70528372    -0.77900
O1111       O  0.25780943  0.66254882  0.67073764    -0.82100
O1112       O  0.23234107  0.73017885  0.70047384    -0.77000
O1113       O  0.31605187  0.71801242  0.60450714    -0.78800
O1114       O  0.37599724  0.74244077  0.77771493    -0.81500
C1115       C  0.21843465  0.75746545  0.67594594     0.99200
C1116       C  0.23354600  0.66911318  0.63170274     1.06700
O1117       O  0.31150759  0.72619173  0.68783319    -1.10500
O1118       O  0.38938483  0.68439603  0.72336517    -0.72900
O1119       O  0.33807357  0.66396674  0.74465922    -0.76400
O1120       O  0.23463409  0.76922601  0.64999813    -0.77100
C1121       C  0.37352606  0.66044444  0.74023768     0.98200
O1122       O  0.31074512  0.73058515  0.77488682    -0.75100
O1123       O  0.37814606  0.73770819  0.65253863    -0.80300
C1124       C  0.33341160  0.80806591  0.67064392     1.00800
C1125       C  0.35414498  0.72820451  0.61411601     1.06700
O1126       O  0.30932316  0.79145212  0.63674557    -0.75900
C1127       C  0.34833139  0.74189770  0.79493848     1.05000
C1128       C  0.30358629  0.84417225  0.93069125     0.31600
C1129       C  0.34038605  0.79556884  0.89471168     0.32000
C1130       C  0.33282608  0.86000354  0.90916482    -0.04200
C1131       C  0.33318320  0.81652785  0.96265439    -0.04900
C1132       C  0.27241245  0.81983962  0.89547170    -0.04800
C1133       C  0.35140514  0.83496745  0.89093964    -0.04200
C1134       C  0.35216532  0.79117556  0.94407487    -0.04900
C1135       C  0.29153483  0.79526283  0.87678007    -0.04800
C1136       C  0.37331076  0.85351941  0.87016078    -0.30200
N1137       N  0.36942535  0.88941066  0.87572053     0.16300
C1138       C  0.34439570  0.89365214  0.89927979    -0.30200
H1139       H  0.33188971  0.91919194  0.90487594     0.18200
C1140       C  0.36919178  0.76433031  0.97457731    -0.29200
N1141       N  0.36192337  0.77320185  0.01083506     0.15000
C1142       C  0.33967636  0.80456674  0.00379489    -0.29200
C1143       C  0.26348377  0.76697962  0.86175361    -0.29500
N1144       N  0.22764455  0.77347671  0.86948597     0.15500
H1145       H  0.26976542  0.74225129  0.84791349     0.18100
C1146       C  0.23316226  0.80516380  0.89124501    -0.29500
H1147       H  0.21104318  0.81621809  0.90442546     0.18200
H1148       H  0.32610058  0.81608775  0.52559683     0.18200
H1149       H  0.38768343  0.84186724  0.84911052     0.18200
H1150       H  0.38260209  0.73905277  0.96958238     0.18200
Fe1151     Fe  0.16618197  0.94819400  0.83026960     1.65800
Fe1152     Fe  0.08001801  0.98820435  0.83795153     1.73200
Fe1153     Fe  0.17611272  0.49300274  0.92225258     1.54400
O1154       O  0.21666574  0.94821453  0.93873204    -0.79600
O1155       O  0.09536015  0.54208722  0.84595906    -0.77900
O1156       O  0.19451769  0.91254121  0.88051724    -0.82100
O1157       O  0.21999861  0.98016475  0.85077980    -0.77000
O1158       O  0.13628642  0.96801543  0.94673978    -0.78800
O1159       O  0.07634273  0.99243969  0.77353116    -0.81500
C1160       C  0.23390194  0.50745625  0.87529934     0.99200
C1161       C  0.21879042  0.91911133  0.91954726     1.06700
O1162       O  0.14082778  0.97619006  0.86341368    -1.10500
O1163       O  0.06294821  0.93439830  0.82788209    -0.72900
O1164       O  0.11425848  0.91396368  0.80658923    -0.76400
O1165       O  0.21769776  0.51922521  0.90123982    -0.77100
C1166       C  0.07880570  0.91044444  0.81101038     0.98200
O1167       O  0.14159593  0.98057772  0.77636400    -0.75100
O1168       O  0.07419119  0.48771150  0.89870746    -0.80300
C1169       C  0.11892545  0.55806719  0.88059845     1.00800
C1170       C  0.09819243  0.97820729  0.93713013     1.06700
O1171       O  0.14301082  0.54145316  0.91449834    -0.75900
C1172       C  0.10401109  0.99189431  0.75631054     1.05000
Fe1173     Fe  0.09354771  0.74051012  0.83811376     1.65800
Fe1174     Fe  0.14263292  0.69747899  0.78179140     1.73200
Fe1175     Fe  0.05144022  0.74131206  0.72744511     1.54400
O1176       O  0.00563326  0.71538274  0.74302457    -0.79600
O1177       O  0.14373697  0.72525117  0.72794826    -0.77900
O1178       O  0.02729297  0.73162126  0.81341176    -0.82100
O1179       O  0.08477610  0.79320898  0.82044834    -0.77000
O1180       O  0.06064109  0.69577835  0.69274827    -0.78800
O1181       O  0.18642568  0.73317280  0.81844256    -0.81500
C1182       C  0.05744398  0.80729570  0.78679679     0.99200
C1183       C  0.99843171  0.72114806  0.77742001     1.06700
O1184       O  0.09592827  0.72676944  0.78289285    -1.10500
O1185       O  0.14799782  0.66629548  0.83497209    -0.72900
O1186       O  0.10060274  0.68801832  0.85995162    -0.76400
O1187       O  0.03757622  0.78967873  0.75207308    -0.77100
C1188       C  0.12453657  0.66305882  0.85660682     0.98200
O1189       O  0.15977315  0.75336225  0.86610542    -0.75100
O1190       O  0.10088209  0.66004303  0.74539421    -0.80300
C1191       C  0.12857937  0.75525475  0.71011389     1.00800
C1192       C  0.07989292  0.66582355  0.70568171     1.06700
O1193       O  0.09503790  0.76917447  0.71121164    -0.75900
C1194       C  0.18945258  0.75215250  0.85104852     1.05000
Fe1195     Fe  0.35880316  0.99050694  0.71313686     1.65800
Fe1196     Fe  0.30972096  0.94747426  0.76945930     1.73200
Fe1197     Fe  0.40090924  0.49131104  0.82380615     1.54400
O1198       O  0.44672446  0.46538960  0.80822772    -0.79600
O1199       O  0.30861437  0.97524103  0.82330421    -0.77900
O1200       O  0.42505931  0.98162158  0.73783826    -0.82100
O1201       O  0.36756923  0.54320587  0.73080097    -0.77000
O1202       O  0.39171410  0.94577446  0.85850167    -0.78800
O1203       O  0.26592658  0.98316941  0.73281075    -0.81500
C1204       C  0.39489604  0.55729497  0.76445369     0.99200
C1205       C  0.45392417  0.97115403  0.77383109     1.06700
O1206       O  0.35642414  0.97676585  0.76835830    -1.10500
O1207       O  0.30435507  0.91629402  0.71627627    -0.72900
O1208       O  0.35175101  0.93801505  0.69129820    -0.76400
O1209       O  0.41476436  0.53968008  0.79917905    -0.77100
C1210       C  0.32781499  0.91305711  0.69464024     0.98200
O1211       O  0.29257646  0.50335690  0.68514527    -0.75100
O1212       O  0.35147545  0.91003898  0.80585504    -0.80300
C1213       C  0.32376582  0.00524584  0.84113683     1.00800
C1214       C  0.37246265  0.91581994  0.84556793     1.06700
O1215       O  0.35730553  0.51916840  0.84003926    -0.75900
C1216       C  0.26289827  0.00214843  0.70020396     1.05000
C1217       C  0.05089882  0.84523651  0.78863147    -0.11200
C1218       C  0.05745154  0.87672338  0.79725304    -0.12800
C1219       C  0.12000295  0.59664945  0.88077541    -0.11200
C1220       C  0.12272665  0.62836853  0.87464261    -0.12800
C1221       C  0.27113082  0.02386912  0.87404697    -0.11200
C1222       C  0.30094375  0.02291984  0.86331981    -0.12800
C1223       C  0.27992003  0.87123571  0.94517428    -0.11200
C1224       C  0.25249619  0.89357475  0.94063900    -0.12800
C1225       C  0.39487914  0.62672272  0.75399605    -0.11200
C1226       C  0.40143450  0.59523619  0.76261825    -0.12800
C1227       C  0.33233789  0.84664820  0.67046501    -0.11200
C1228       C  0.32961985  0.87836779  0.67659960    -0.12800
C1229       C  0.35697949  0.77096659  0.86998670    -0.11200
C1230       C  0.35863274  0.75586317  0.83834497    -0.12800
C1231       C  0.36802118  0.75085366  0.54681643    -0.11200
C1232       C  0.36720343  0.73570379  0.57864852    -0.12800
C1233       C  0.15139566  0.77293086  0.68792736    -0.11200
C1234       C  0.18120631  0.77388137  0.67719701    -0.12800
C1235       C  0.19984630  0.64357331  0.61060881    -0.11200
C1236       C  0.17242663  0.62123135  0.60607327    -0.12800
C1237       C  0.09371475  0.50586213  0.71290579    -0.11200
C1238       C  0.09537099  0.52096667  0.68126614    -0.12800
C1239       C  0.08513307  0.48570502  0.97259739    -0.11200
C1240       C  0.08431720  0.50085357  0.50443117    -0.12800
C1241       C  0.90156325  0.84541576  0.76279455    -0.11200
C1242       C  0.89500530  0.87690078  0.75416310    -0.12800
C1243       C  0.83245509  0.59683598  0.67065455    -0.11200
C1244       C  0.82969458  0.62855071  0.67678986    -0.12800
C1245       C  0.68136176  0.02411401  0.67724022    -0.11200
C1246       C  0.65151266  0.02318535  0.68791173    -0.12800
C1247       C  0.67257507  0.87143487  0.60606545    -0.11200
C1248       C  0.70001822  0.89376665  0.61065534    -0.12800
C1249       C  0.55736877  0.62691049  0.79708132    -0.11200
C1250       C  0.55080716  0.59542596  0.78845000    -0.12800
C1251       C  0.61991248  0.84684239  0.88060075    -0.11200
C1252       C  0.62266901  0.87855728  0.87446472    -0.12800
C1253       C  0.59367301  0.75608168  0.71276381    -0.11200
C1254       C  0.59538346  0.77118947  0.68114840    -0.12800
C1255       C  0.58496020  0.73600607  0.97240436    -0.11200
C1256       C  0.58420158  0.75117803  0.50424907    -0.12800
C1257       C  0.77100619  0.77412314  0.87400992    -0.11200
C1258       C  0.80085377  0.77319127  0.86333656    -0.12800
C1259       C  0.75234766  0.64376615  0.94059200    -0.11200
C1260       C  0.77978765  0.62143051  0.94518228    -0.12800
C1261       C  0.85697537  0.52118274  0.87009363    -0.11200
C1262       C  0.85868905  0.50607384  0.83847995    -0.12800
C1263       C  0.86816510  0.50117151  0.54699629    -0.11200
C1264       C  0.86740804  0.48600024  0.57884188    -0.12800
loop_ 
_geom_bond_atom_site_label_1 
_geom_bond_atom_site_label_2 
_geom_bond_distance 
_geom_bond_site_symmetry_2 
_ccdc_geom_bond_type 
C1            C3   1.542       .  S
C1            C5   1.535       .  S
C1            C4   1.541       .  S
C1          C312   1.475       .  S
C2            C6   1.526       .  S
C2            C8   1.531       .  S
C2            C7   1.541       .  S
C2          C313   1.475       .  S
C3           C11   1.385       .  A
C3            C6   1.384       .  A
C4           C15   1.372       .  A
C4            C7   1.408       .  A
C5           C19   1.394       .  A
C5            C8   1.394       .  A
C6            C9   1.375       .  A
C7           C13   1.380       .  A
C8           C16   1.376       .  A
C9           N10   1.358       .  A
C9           H22   1.083       .  S
N10          C11   1.365       .  A
N10         C132   1.432       .  S
C11          H12   1.083       .  S
C13          N14   1.358       .  A
C13         H655   1.082   1_545  S
N14          C15   1.358       .  A
N14         C631   1.403       .  S
C15         H337   1.083       .  S
C16          N17   1.356       .  A
C16         H650   1.083   1_545  S
N17          C19   1.355       .  A
N17         C744   1.440       .  S
H18         C648   1.083       .  S
C19          H20   1.083       .  S
H21         C331   1.083       .  S
H23         C645   1.082       .  S
Fe24         O40   2.051       .  S
Fe24         O30   2.062       .  S
Fe24         O37   2.068       .  S
Fe24         O29   2.058       .  S
Fe24         O35   1.936       .  S
Fe25         O28   2.057       .  S
Fe25         O32   2.101       .  S
Fe25         O36   2.070       .  S
Fe25         O41   2.101       .  S
Fe25         O35   1.958       .  S
Fe26         O44   2.082       .  S
Fe26         O31   2.044       .  S
Fe26         O38   2.042       .  S
Fe26         O27   2.092       .  S
Fe26         O35   1.964       .  S
O27          C34   1.270       .  A
O28          C42   1.270       .  A
O29          C34   1.266       .  A
O30          C33   1.272       .  A
O31          C43   1.264       .  A
O32          C45   1.271       .  A
C33          O38   1.263       .  A
C33         C309   1.416       .  S
C34         C311   1.444       .  S
O36          C39   1.274       .  A
O37          C39   1.272       .  A
C39         C301   1.430       .  S
O40          C45   1.263       .  A
O41          C43   1.274       .  A
C42          O44   1.270       .  A
C42         C303   1.432       .  S
C43         C307   1.434       .  S
C45         C305   1.444       .  S
C46          C48   1.542       .  S
C46          C50   1.535       .  S
C46          C49   1.541       .  S
C46         C299   1.475       .  S
C47          C51   1.526       .  S
C47          C53   1.531       .  S
C47          C52   1.541       .  S
C47         C306   1.475       .  S
C48          C56   1.385       .  A
C48          C51   1.384       .  A
C49          C60   1.372       .  A
C49          C52   1.408       .  A
C50          C64   1.394       .  A
C50          C53   1.394       .  A
C51          C54   1.375       .  A
C52          C58   1.380       .  A
C53          C61   1.376       .  A
C54          N55   1.358       .  A
C54          H67   1.083       .  S
N55          C56   1.365       .  A
N55         C110   1.432       .  S
C56          H57   1.083       .  S
C58          N59   1.358       .  A
C58          H68   1.082       .  S
N59          C60   1.358       .  A
N59         C308   1.403       .  S
C60          H66   1.083       .  S
C61          N62   1.356       .  A
C61          H63   1.083       .  S
N62          C64   1.355       .  A
N62         C134   1.440       .  S
C64          H65   1.083       .  S
Fe69         O85   2.051       .  S
Fe69         O75   2.062       .  S
Fe69         O82   2.068       .  S
Fe69         O74   2.058       .  S
Fe69         O80   1.936       .  S
Fe70         O77   2.101       .  S
Fe70         O81   2.070       .  S
Fe70        O705   2.057       .  S
Fe70        O718   2.101       .  S
Fe70         O80   1.958       .  S
Fe71         O89   2.082   1_565  S
Fe71         O83   2.042   1_565  S
Fe71        O708   2.044       .  S
Fe71        O704   2.092       .  S
Fe71        O712   1.964       .  S
O72        Fe703   2.092       .  S
O72          C79   1.270       .  A
O73        Fe702   2.057   1_545  S
O73          C87   1.270       .  A
O74          C79   1.266       .  A
O75          C78   1.272       .  A
O76        Fe703   2.044       .  S
O76          C88   1.264       .  A
O77          C90   1.271       .  A
C78         O715   1.263       .  A
C78         C297   1.416       .  S
C79         C300   1.444       .  S
O80        Fe703   1.964       .  S
O81          C84   1.274       .  A
O82          C84   1.272       .  A
O83         C710   1.263       .  A
C84         C294   1.430       .  S
O85          C90   1.263       .  A
O86        Fe702   2.101       .  S
O86         C720   1.274       .  A
C87          O89   1.270       .  A
C87         C295   1.432       .  S
C88         O718   1.274       .  A
C88         C948   1.434       .  S
C90         C946   1.444       .  S
Fe91        O104   2.060       .  S
Fe91         O96   2.103       .  S
Fe91        O739   2.131       .  S
Fe91        O729   2.030       .  S
Fe91        O102   1.934       .  S
Fe92         O95   2.076       .  S
Fe92         O99   2.015       .  S
Fe92        O103   2.060       .  S
Fe92        O108   2.022       .  S
Fe92        O102   1.932       .  S
Fe93        O111   2.037   1_565  S
Fe93        O105   2.098   1_565  S
Fe93         O94   2.053       .  S
Fe93        O730   2.133       .  S
Fe93        O734   1.959       .  S
O94         C733   1.274       .  A
O95         C109   1.274       .  A
O96         C101   1.283       .  A
O97        Fe723   2.030   1_545  S
O97         C100   1.261       .  A
O98        Fe725   2.133       .  S
O98         C110   1.277       .  A
O99         C112   1.262       .  A
C100        O105   1.272       .  A
C100        C302   1.430       .  S
C101        O726   1.274       .  A
C101        C257   1.469       .  S
O102       Fe725   1.959       .  S
O103        C106   1.264       .  A
O104        C106   1.264       .  A
C106        C304   1.431       .  S
O107       Fe723   2.131   1_545  S
O107        C744   1.284       .  A
O108        C110   1.255       .  A
C109        O743   1.262       .  A
C109        C298   1.416       .  S
O111        C741   1.262       .  A
C112        N649   1.440       .  S
C112        O739   1.284       .  A
Fe113       O129   2.131       .  S
Fe113       O119   2.030       .  S
Fe113       O126   2.060       .  S
Fe113       O118   2.103       .  S
Fe113       O124   1.934       .  S
Fe114       O117   2.076       .  S
Fe114       O121   2.015       .  S
Fe114       O125   2.060       .  S
Fe114       O130   2.022       .  S
Fe114       O124   1.932       .  S
Fe115       O133   2.037       .  S
Fe115       O120   2.133       .  S
Fe115       O127   2.098       .  S
Fe115       O116   2.053       .  S
Fe115       O124   1.959       .  S
O116        C123   1.274       .  A
O117        C131   1.274       .  A
O118        C123   1.283       .  A
O119        C122   1.261       .  A
O120        C132   1.277       .  A
O121        C134   1.262       .  A
C122        O127   1.272       .  A
C122        C293   1.430       .  S
C123        C235   1.469       .  S
O125        C128   1.264       .  A
O126        C128   1.264       .  A
C128        C296   1.431       .  S
O129        C134   1.284       .  A
O130        C132   1.255       .  A
C131        O133   1.262       .  A
C131        C310   1.416       .  S
C135        C137   1.542       .  S
C135        C139   1.535       .  S
C135        C138   1.541       .  S
C135        C288   1.475       .  S
C136        C140   1.526       .  S
C136        C142   1.532       .  S
C136        C141   1.541       .  S
C136        C290   1.475       .  S
C137        C145   1.385       .  A
C137        C140   1.384       .  A
C138        C149   1.372       .  A
C138        C141   1.408       .  A
C139        C153   1.394       .  A
C139        C142   1.394       .  A
C140        C143   1.375       .  A
C141        C147   1.380       .  A
C142        C150   1.376       .  A
C143        N144   1.358       .  A
C143        H156   1.083       .  S
N144        C145   1.365       .  A
N144        C244   1.432       .  S
C145        H146   1.083       .  S
C147        N148   1.358       .  A
C147        H789   1.082   1_545  S
N148        C149   1.358       .  A
N148        C292   1.403       .  S
C149        H155   1.083       .  S
C150        N151   1.356       .  A
C150        H784   1.083   1_545  S
N151        C153   1.355       .  A
N151        C900   1.440       .  S
H152        C782   1.083       .  S
C153        H154   1.083       .  S
H157        C779   1.082       .  S
Fe158       O174   2.051       .  S
Fe158       O164   2.062       .  S
Fe158       O171   2.067       .  S
Fe158       O163   2.058       .  S
Fe158       O169   1.936       .  S
Fe159       O162   2.057       .  S
Fe159       O166   2.101       .  S
Fe159       O170   2.070       .  S
Fe159       O175   2.101       .  S
Fe159       O169   1.958       .  S
Fe160       O178   2.082       .  S
Fe160       O165   2.044       .  S
Fe160       O172   2.042       .  S
Fe160       O161   2.092       .  S
Fe160       O169   1.964       .  S
O161        C168   1.270       .  A
O162        C176   1.270       .  A
O163        C168   1.266       .  A
O164        C167   1.272       .  A
O165        C177   1.264       .  A
O166        C179   1.271       .  A
C167        O172   1.263       .  A
C167        C286   1.416       .  S
C168        C287   1.444       .  S
O170        C173   1.274       .  A
O171        C173   1.272       .  A
C173        C277   1.430       .  S
O174        C179   1.263       .  A
O175        C177   1.274       .  A
C176        O178   1.270       .  A
C176        C279   1.432       .  S
C177        C284   1.434       .  S
C179        C282   1.444       .  S
C180        C182   1.542       .  S
C180        C184   1.535       .  S
C180        C183   1.541       .  S
C180        C275   1.475       .  S
C181        C185   1.526       .  S
C181        C187   1.531       .  S
C181        C186   1.541       .  S
C181        C281   1.475       .  S
C182        C190   1.385       .  A
C182        C185   1.384       .  A
C183        C194   1.372       .  A
C183        C186   1.408       .  A
C184        C198   1.394       .  A
C184        C187   1.394       .  A
C185        C188   1.375       .  A
C186        C192   1.380       .  A
C187        C195   1.376       .  A
C188        N189   1.358       .  A
C188        H201   1.083       .  S
N189        C190   1.365       .  A
N189        C266   1.432       .  S
C190        H191   1.083       .  S
C192        N193   1.358       .  A
C192        H202   1.082       .  S
N193        C194   1.358       .  A
N193        C599   1.403       .  S
C194        H516   1.083       .  S
C195        N196   1.356       .  A
C195        H197   1.083       .  S
N196        C198   1.355       .  A
N196        C246   1.440       .  S
C198        H199   1.083       .  S
H200        C510   1.083       .  S
Fe203       O219   2.051       .  S
Fe203       O209   2.062       .  S
Fe203       O216   2.067       .  S
Fe203       O208   2.058       .  S
Fe203       O214   1.936       .  S
Fe204       O211   2.101       .  S
Fe204       O215   2.070       .  S
Fe204       O839   2.057       .  S
Fe204       O852   2.101       .  S
Fe204       O214   1.958       .  S
Fe205       O223   2.082   1_565  S
Fe205       O217   2.042   1_565  S
Fe205       O842   2.044       .  S
Fe205       O838   2.092       .  S
Fe205       O846   1.964       .  S
O206       Fe837   2.092       .  S
O206        C213   1.270       .  A
O207       Fe836   2.057   1_545  S
O207        C221   1.270       .  A
O208        C213   1.266       .  A
O209        C844   1.272       .  A
O210       Fe837   2.044       .  S
O210        C222   1.264       .  A
O211        C224   1.271       .  A
C212        O217   1.263       .  A
C212        O841   1.272   1_545  A
C212        C905   1.416       .  S
C213        C276   1.444       .  S
O214       Fe837   1.964       .  S
O215        C218   1.274       .  A
O216        C218   1.272       .  A
C218        C270   1.430       .  S
O219        C224   1.263       .  A
O220       Fe836   2.101       .  S
O220        C854   1.274       .  A
C221        O223   1.270       .  A
C221        C271   1.432       .  S
C222        O852   1.274       .  A
C222        C923   1.434       .  S
C224        C921   1.444       .  S
Fe225       O241   2.131       .  S
Fe225       O231   2.030       .  S
Fe225       O238   2.060       .  S
Fe225       O230   2.103       .  S
Fe225       O236   1.934       .  S
Fe226       O229   2.076       .  S
Fe226       O233   2.015       .  S
Fe226       O237   2.060       .  S
Fe226       O242   2.022       .  S
Fe226       O236   1.932       .  S
Fe227       O245   2.037       .  S
Fe227       O232   2.134       .  S
Fe227       O239   2.098       .  S
Fe227       O228   2.053       .  S
Fe227       O236   1.959       .  S
O228        C235   1.274   1_455  A
O229        C243   1.274       .  A
O230        C235   1.283   1_455  A
O231        C234   1.261       .  A
O232        C244   1.277       .  A
O233        C246   1.262       .  A
C234        O239   1.272       .  A
C234        C269   1.430       .  S
O237        C240   1.264       .  A
O238        C240   1.264       .  A
C240        C272   1.431       .  S
O241        C246   1.284       .  A
O242        C244   1.255       .  A
C243        O245   1.262       .  A
C243        C285   1.416       .  S
Fe247       O260   2.060       .  S
Fe247       O252   2.103       .  S
Fe247       O895   2.131       .  S
Fe247       O885   2.030       .  S
Fe247       O258   1.934       .  S
Fe248       O251   2.076       .  S
Fe248       O255   2.015       .  S
Fe248       O259   2.060       .  S
Fe248       O264   2.022       .  S
Fe248       O258   1.932       .  S
Fe249       O267   2.037   1_565  S
Fe249       O261   2.098   1_565  S
Fe249       O250   2.053       .  S
Fe249       O886   2.134       .  S
Fe249       O890   1.959       .  S
O250        C889   1.274       .  A
O251        C265   1.274       .  A
O252        C257   1.283       .  A
O253       Fe879   2.030   1_545  S
O253        C256   1.261       .  A
O254       Fe881   2.134       .  S
O254        C266   1.277       .  A
O255        C268   1.263       .  A
C256        O261   1.272       .  A
C256        C278   1.430       .  S
C257        O882   1.274       .  A
O258       Fe881   1.959       .  S
O259        C262   1.264       .  A
O260        C262   1.264       .  A
C262        C280   1.431       .  S
O263       Fe879   2.131   1_545  S
O263        C900   1.284       .  A
O264        C266   1.255       .  A
C265        O899   1.262       .  A
C265        C274   1.416       .  S
O267        C897   1.262       .  A
C268        N783   1.440       .  S
C268        O895   1.284       .  A
C269        C270   1.203       .  T
C271        C272   1.204       .  T
C273        C844   1.416       .  S
C273        C274   1.193       .  T
C275        C276   1.211       .  T
C277        C278   1.203       .  T
C279        C280   1.204       .  T
C281        C282   1.211       .  T
C283        N509   1.403       .  S
C283        C284   1.207       .  T
C285        C286   1.193       .  T
C287        C288   1.211       .  T
C289        C856   1.444   1_545  S
C289        C290   1.211       .  T
C291        C854   1.434       .  S
C291        C608   1.207   1_565  T
C292        C607   1.207   1_544  T
C293        C294   1.203       .  T
C295        C296   1.204       .  T
C297        C298   1.193       .  T
C299        C300   1.211       .  T
C301        C302   1.203       .  T
C303        C304   1.204       .  T
C305        C306   1.211       .  T
C307        C624   1.207       .  T
C308        C623   1.207   1_554  T
C309        C310   1.193       .  T
C311        C312   1.211       .  T
C313        C314   1.211       .  T
C314        C722   1.444   1_545  S
C315        N330   1.403       .  S
C315        C316   1.207   1_545  T
C316        C720   1.434       .  S
C317        C319   1.542       .  S
C317        C321   1.535       .  S
C317        C320   1.541       .  S
C317        C628   1.475       .  S
C318        C322   1.526       .  S
C318        C324   1.531       .  S
C318        C323   1.541       .  S
C318        C629   1.475       .  S
C319        C327   1.385       .  A
C319        C322   1.384       .  A
C320        C331   1.372   1_556  A
C320        C323   1.408       .  A
C321        C335   1.394       .  A
C321        C324   1.394       .  A
C322        C325   1.375       .  A
C323        C329   1.380       .  A
C324        C332   1.376       .  A
C325        N326   1.358       .  A
C325        H338   1.083       .  S
N326        C327   1.365       .  A
N326        C448   1.432       .  S
C327        H328   1.083       .  S
C329        N330   1.358   1_556  A
C329        H971   1.082   1_545  S
N330        C331   1.358       .  A
C332        N333   1.356       .  A
C332        H966   1.083   1_545  S
N333        C335   1.355       .  A
N333       C1060   1.440       .  S
H334        C964   1.083       .  S
C335        H336   1.083       .  S
H339        C961   1.082       .  S
Fe340       O356   2.051       .  S
Fe340       O346   2.062       .  S
Fe340       O353   2.068       .  S
Fe340       O345   2.058       .  S
Fe340       O351   1.936       .  S
Fe341       O344   2.057       .  S
Fe341       O348   2.101       .  S
Fe341       O352   2.070       .  S
Fe341       O357   2.101       .  S
Fe341       O351   1.958       .  S
Fe342       O360   2.082       .  S
Fe342       O347   2.044       .  S
Fe342       O354   2.042       .  S
Fe342       O343   2.092       .  S
Fe342       O351   1.964       .  S
O343        C350   1.270       .  A
O344        C358   1.270       .  A
O345        C350   1.266       .  A
O346        C349   1.272       .  A
O347        C359   1.264       .  A
O348        C361   1.271       .  A
C349        O354   1.263       .  A
C349        C625   1.416       .  S
C350        C627   1.444       .  S
O352        C355   1.274       .  A
O353        C355   1.272       .  A
C355        C617   1.430       .  S
O356        C361   1.263       .  A
O357        C359   1.274       .  A
C358        O360   1.270       .  A
C358        C619   1.432       .  S
C359        C623   1.434       .  S
C361        C621   1.444       .  S
C362        C364   1.542       .  S
C362        C366   1.535       .  S
C362        C365   1.541       .  S
C362        C615   1.475       .  S
C363        C367   1.526       .  S
C363        C369   1.531       .  S
C363        C368   1.541       .  S
C363        C622   1.475       .  S
C364        C372   1.385       .  A
C364        C367   1.384       .  A
C365        C376   1.372       .  A
C365        C368   1.408       .  A
C366        C380   1.394       .  A
C366        C369   1.394       .  A
C367        C370   1.375       .  A
C368        C374   1.380       .  A
C369        C377   1.376       .  A
C370        N371   1.358       .  A
C370        H383   1.083       .  S
N371        C372   1.365       .  A
N371        C426   1.432       .  S
C372        H373   1.083       .  S
C374        N375   1.358       .  A
C374        H384   1.082       .  S
N375        C376   1.358       .  A
N375        C624   1.403       .  S
C376        H382   1.083       .  S
C377        N378   1.356       .  A
C377        H379   1.083       .  S
N378        C380   1.355       .  A
N378        C450   1.440       .  S
C380        H381   1.083       .  S
Fe385       O401   2.051       .  S
Fe385       O391   2.062       .  S
Fe385       O398   2.068       .  S
Fe385       O390   2.058       .  S
Fe385       O396   1.936       .  S
Fe386      O1021   2.057       .  S
Fe386       O393   2.101       .  S
Fe386       O397   2.070       .  S
Fe386      O1034   2.101       .  S
Fe386       O396   1.958       .  S
Fe387       O405   2.082   1_565  S
Fe387      O1024   2.044       .  S
Fe387       O399   2.042   1_565  S
Fe387      O1020   2.092       .  S
Fe387      O1028   1.964       .  S
O388      Fe1019   2.092       .  S
O388        C395   1.270       .  A
O389      Fe1018   2.057   1_545  S
O389        C403   1.270       .  A
O390        C395   1.266       .  A
O391        C394   1.272       .  A
O392      Fe1019   2.044       .  S
O392        C404   1.264       .  A
O393        C406   1.271       .  A
C394       O1031   1.263       .  A
C394        C613   1.416       .  S
C395        C616   1.444       .  S
O396      Fe1019   1.964       .  S
O397        C400   1.274       .  A
O398        C400   1.272       .  A
O399       C1026   1.263       .  A
C400        C610   1.430       .  S
O401        C406   1.263       .  A
O402      Fe1018   2.101       .  S
O402       C1036   1.274       .  A
C403        O405   1.270       .  A
C403        C611   1.432       .  S
C404       O1034   1.274       .  A
C404       C1264   1.434       .  S
C406       C1262   1.444       .  S
Fe407      O1055   2.131       .  S
Fe407      O1045   2.030       .  S
Fe407       O420   2.060       .  S
Fe407       O412   2.103       .  S
Fe407       O418   1.934       .  S
Fe408       O411   2.076       .  S
Fe408       O415   2.015       .  S
Fe408       O419   2.060       .  S
Fe408       O424   2.022       .  S
Fe408       O418   1.932       .  S
Fe409       O427   2.037   1_565  S
Fe409      O1046   2.133       .  S
Fe409       O421   2.098   1_565  S
Fe409       O410   2.053       .  S
Fe409      O1050   1.959       .  S
O410       C1049   1.274       .  A
O411        C425   1.274       .  A
O412        C417   1.283       .  A
O413      Fe1039   2.030   1_545  S
O413        C416   1.261       .  A
O414      Fe1041   2.133       .  S
O414        C426   1.277       .  A
O415        C428   1.262       .  A
C416        O421   1.272       .  A
C416        C618   1.430       .  S
C417       O1042   1.274       .  A
C417        C573   1.469       .  S
O418      Fe1041   1.959       .  S
O419        C422   1.264       .  A
O420        C422   1.264       .  A
C422        C620   1.431       .  S
O423      Fe1039   2.131   1_545  S
O423       C1060   1.284       .  A
O424        C426   1.255       .  A
C425       O1059   1.262       .  A
C425        C614   1.416       .  S
O427       C1057   1.262       .  A
C428        N965   1.440       .  S
C428       O1055   1.284       .  A
Fe429       O445   2.131       .  S
Fe429       O435   2.030       .  S
Fe429       O442   2.060       .  S
Fe429       O434   2.103       .  S
Fe429       O440   1.934       .  S
Fe430       O433   2.076       .  S
Fe430       O437   2.015       .  S
Fe430       O441   2.060       .  S
Fe430       O446   2.022       .  S
Fe430       O440   1.932       .  S
Fe431       O449   2.037       .  S
Fe431       O436   2.133       .  S
Fe431       O443   2.098       .  S
Fe431       O432   2.053       .  S
Fe431       O440   1.959       .  S
O432        C439   1.274       .  A
O433        C447   1.274       .  A
O434        C439   1.283       .  A
O435        C438   1.261       .  A
O436        C448   1.277       .  A
O437        C450   1.262       .  A
C438        O443   1.272       .  A
C438        C609   1.430       .  S
C439        C551   1.469       .  S
O441        C444   1.264       .  A
O442        C444   1.264       .  A
C444        C612   1.431       .  S
O445        C450   1.284       .  A
O446        C448   1.255       .  A
C447        O449   1.262       .  A
C447        C626   1.416       .  S
C451        C453   1.542       .  S
C451        C455   1.535       .  S
C451        C454   1.541       .  S
C451        C604   1.475       .  S
C452        C456   1.526       .  S
C452        C458   1.532       .  S
C452        C457   1.541       .  S
C452        C606   1.475       .  S
C453        C461   1.385       .  A
C453        C456   1.384       .  A
C454        C465   1.372       .  A
C454        C457   1.408       .  A
C455        C469   1.394       .  A
C455        C458   1.394       .  A
C456        C459   1.375       .  A
C457        C463   1.380       .  A
C458        C466   1.376       .  A
C459        N460   1.358       .  A
C459        H472   1.083       .  S
N460        C461   1.365       .  A
N460        C560   1.432       .  S
C461        H462   1.083       .  S
C463        N464   1.358       .  A
C463       H1105   1.082   1_545  S
N464        C465   1.358       .  A
N464        C608   1.403       .  S
C465        H471   1.083       .  S
C466        N467   1.356       .  A
C466       H1100   1.083   1_545  S
N467        C469   1.355       .  A
N467       C1216   1.440       .  S
H468       C1098   1.083       .  S
C469        H470   1.083       .  S
H473       C1095   1.082       .  S
Fe474       O490   2.051       .  S
Fe474       O480   2.062       .  S
Fe474       O487   2.067       .  S
Fe474       O479   2.058       .  S
Fe474       O485   1.936       .  S
Fe475       O478   2.057       .  S
Fe475       O482   2.101       .  S
Fe475       O486   2.070       .  S
Fe475       O491   2.101       .  S
Fe475       O485   1.958       .  S
Fe476       O494   2.082       .  S
Fe476       O481   2.044       .  S
Fe476       O488   2.042       .  S
Fe476       O477   2.092       .  S
Fe476       O485   1.964       .  S
O477        C484   1.270       .  A
O478        C492   1.270       .  A
O479        C484   1.266       .  A
O480        C483   1.272       .  A
O481        C493   1.264       .  A
O482        C495   1.271       .  A
C483        O488   1.263       .  A
C483        C602   1.416       .  S
C484        C603   1.444       .  S
O486        C489   1.274       .  A
O487        C489   1.272       .  A
C489        C593   1.430       .  S
O490        C495   1.263       .  A
O491        C493   1.274       .  A
C492        O494   1.270       .  A
C492        C595   1.432       .  S
C493        C600   1.434       .  S
C495        C598   1.444       .  S
C496        C498   1.542       .  S
C496        C500   1.535       .  S
C496        C499   1.541       .  S
C496        C591   1.475       .  S
C497        C501   1.526       .  S
C497        C503   1.531       .  S
C497        C502   1.541       .  S
C497        C597   1.475       .  S
C498        C506   1.385       .  A
C498        C501   1.384       .  A
C499        C510   1.372   1_556  A
C499        C502   1.408       .  A
C500        C514   1.394       .  A
C500        C503   1.394       .  A
C501        C504   1.375       .  A
C502        C508   1.380       .  A
C503        C511   1.376       .  A
C504        N505   1.358       .  A
C504        H517   1.083       .  S
N505        C506   1.365       .  A
N505        C582   1.432       .  S
C506        H507   1.083       .  S
C508        N509   1.358   1_556  A
C508        H518   1.082       .  S
N509        C510   1.358       .  A
C511        N512   1.356       .  A
C511        H513   1.083       .  S
N512        C514   1.355       .  A
N512        C562   1.440       .  S
C514        H515   1.083       .  S
Fe519       O535   2.051       .  S
Fe519       O525   2.062       .  S
Fe519       O532   2.067       .  S
Fe519       O524   2.058       .  S
Fe519       O530   1.936       .  S
Fe520      O1155   2.057       .  S
Fe520       O527   2.101       .  S
Fe520       O531   2.070       .  S
Fe520      O1168   2.101       .  S
Fe520       O530   1.958       .  S
Fe521       O539   2.082   1_565  S
Fe521      O1158   2.044       .  S
Fe521       O533   2.042   1_565  S
Fe521      O1154   2.092       .  S
Fe521      O1162   1.964       .  S
O522      Fe1153   2.092       .  S
O522        C529   1.270       .  A
O523      Fe1152   2.057   1_545  S
O523        C537   1.270       .  A
O524        C529   1.266       .  A
O525       C1160   1.272       .  A
O526      Fe1153   2.044       .  S
O526        C538   1.264       .  A
O527        C540   1.271       .  A
C528       O1157   1.272   1_545  A
C528        O533   1.263       .  A
C528       C1221   1.416       .  S
C529        C592   1.444       .  S
O530      Fe1153   1.964       .  S
O531        C534   1.274       .  A
O532        C534   1.272       .  A
C534        C586   1.430       .  S
O535        C540   1.263       .  A
O536      Fe1152   2.101       .  S
O536       C1170   1.274       .  A
C537        O539   1.270       .  A
C537        C587   1.432       .  S
C538       O1168   1.274       .  A
C538       C1239   1.434       .  S
C540       C1237   1.444       .  S
Fe541       O557   2.131       .  S
Fe541       O547   2.030       .  S
Fe541       O554   2.060       .  S
Fe541       O546   2.103       .  S
Fe541       O552   1.934       .  S
Fe542       O545   2.076       .  S
Fe542       O549   2.015       .  S
Fe542       O553   2.060       .  S
Fe542       O558   2.022       .  S
Fe542       O552   1.932       .  S
Fe543       O561   2.037       .  S
Fe543       O548   2.134       .  S
Fe543       O555   2.098       .  S
Fe543       O544   2.053       .  S
Fe543       O552   1.959       .  S
O544        C551   1.274   1_455  A
O545        C559   1.274       .  A
O546        C551   1.283   1_455  A
O547        C550   1.261       .  A
O548        C560   1.277       .  A
O549        C562   1.262       .  A
C550        O555   1.272       .  A
C550        C585   1.430       .  S
O553        C556   1.264       .  A
O554        C556   1.264       .  A
C556        C588   1.431       .  S
O557        C562   1.284       .  A
O558        C560   1.255       .  A
C559        O561   1.262       .  A
C559        C601   1.416       .  S
Fe563      O1211   2.131       .  S
Fe563      O1201   2.030       .  S
Fe563       O576   2.060       .  S
Fe563       O568   2.103       .  S
Fe563       O574   1.934       .  S
Fe564       O567   2.076       .  S
Fe564       O571   2.015       .  S
Fe564       O575   2.060       .  S
Fe564       O580   2.022       .  S
Fe564       O574   1.932       .  S
Fe565       O583   2.037   1_565  S
Fe565      O1202   2.134       .  S
Fe565       O577   2.098   1_565  S
Fe565       O566   2.053       .  S
Fe565      O1206   1.959       .  S
O566       C1205   1.274       .  A
O567        C581   1.274       .  A
O568        C573   1.283       .  A
O569      Fe1195   2.030   1_545  S
O569        C572   1.261       .  A
O570      Fe1197   2.134       .  S
O570        C582   1.277       .  A
O571        C584   1.263       .  A
C572        O577   1.272       .  A
C572        C594   1.430       .  S
C573       O1198   1.274       .  A
O574      Fe1197   1.959       .  S
O575        C578   1.264       .  A
O576        C578   1.264       .  A
C578        C596   1.431       .  S
O579      Fe1195   2.131   1_545  S
O579       C1216   1.284       .  A
O580        C582   1.255       .  A
C581       O1215   1.262       .  A
C581        C590   1.416       .  S
O583       C1213   1.262       .  A
C584       N1099   1.440       .  S
C584       O1211   1.284       .  A
C585        C586   1.203       .  T
C587        C588   1.204       .  T
C589       C1160   1.416       .  S
C589        C590   1.193       .  T
C591        C592   1.211       .  T
C593        C594   1.203       .  T
C595        C596   1.204       .  T
C597        C598   1.211       .  T
C599        C600   1.207       .  T
C601        C602   1.193       .  T
C603        C604   1.211       .  T
C605       C1172   1.444   1_545  S
C605        C606   1.211       .  T
C607       C1170   1.434       .  S
C609        C610   1.203       .  T
C611        C612   1.204       .  T
C613        C614   1.193       .  T
C615        C616   1.211       .  T
C617        C618   1.203       .  T
C619        C620   1.204       .  T
C621        C622   1.211       .  T
C625        C626   1.193       .  T
C627        C628   1.211       .  T
C629        C630   1.211       .  T
C630       C1038   1.444   1_545  S
C631        C632   1.207   1_545  T
C632       C1036   1.434       .  S
C633        C635   1.542       .  S
C633        C637   1.535       .  S
C633        C636   1.541       .  S
C633        C944   1.475       .  S
C634        C638   1.526       .  S
C634        C640   1.531       .  S
C634        C639   1.541       .  S
C634        C945   1.475       .  S
C635        C643   1.385       .  A
C635        C638   1.384       .  A
C636        C647   1.372       .  A
C636        C639   1.408       .  A
C637        C651   1.394       .  A
C637        C640   1.394       .  A
C638        C641   1.375       .  A
C639        C645   1.380       .  A
C640        C648   1.376       .  A
C641        N642   1.358       .  A
C641        H654   1.083       .  S
N642        C643   1.365       .  A
N642        C764   1.432       .  S
C643        H644   1.083       .  S
C645        N646   1.358       .  A
N646        C647   1.358       .  A
N646       C1263   1.403       .  S
C647        H969   1.083       .  S
C648        N649   1.356       .  A
N649        C651   1.355       .  A
C651        H652   1.083       .  S
H653        C963   1.083       .  S
Fe656       O672   2.051       .  S
Fe656       O662   2.062       .  S
Fe656       O669   2.068       .  S
Fe656       O661   2.058       .  S
Fe656       O667   1.936       .  S
Fe657       O660   2.057       .  S
Fe657       O664   2.101       .  S
Fe657       O668   2.070       .  S
Fe657       O673   2.101       .  S
Fe657       O667   1.958       .  S
Fe658       O676   2.082       .  S
Fe658       O663   2.044       .  S
Fe658       O670   2.042       .  S
Fe658       O659   2.092       .  S
Fe658       O667   1.964       .  S
O659        C666   1.270       .  A
O660        C674   1.270       .  A
O661        C666   1.266       .  A
O662        C665   1.272       .  A
O663        C675   1.264       .  A
O664        C677   1.271       .  A
C665        O670   1.263       .  A
C665        C941   1.416       .  S
C666        C943   1.444       .  S
O668        C671   1.274       .  A
O669        C671   1.272       .  A
C671        C933   1.430       .  S
O672        C677   1.263       .  A
O673        C675   1.274       .  A
C674        O676   1.270       .  A
C674        C935   1.432       .  S
C675        C939   1.434       .  S
C677        C937   1.444       .  S
C678        C680   1.542       .  S
C678        C682   1.535       .  S
C678        C681   1.541       .  S
C678        C931   1.475       .  S
C679        C683   1.526       .  S
C679        C685   1.531       .  S
C679        C684   1.541       .  S
C679        C938   1.475       .  S
C680        C688   1.385       .  A
C680        C683   1.384       .  A
C681        C692   1.372       .  A
C681        C684   1.408       .  A
C682        C696   1.394       .  A
C682        C685   1.394       .  A
C683        C686   1.375       .  A
C684        C690   1.380       .  A
C685        C693   1.376       .  A
C686        N687   1.358       .  A
C686        H699   1.083       .  S
N687        C688   1.365       .  A
N687        C742   1.432       .  S
C688        H689   1.083       .  S
C690        N691   1.358       .  A
C690        H700   1.082       .  S
N691        C692   1.358       .  A
N691        C940   1.403       .  S
C692        H698   1.083       .  S
C693        N694   1.356       .  A
C693        H695   1.083       .  S
N694        C696   1.355       .  A
N694        C766   1.440       .  S
C696        H697   1.083       .  S
Fe701       O717   2.051       .  S
Fe701       O707   2.062       .  S
Fe701       O714   2.068       .  S
Fe701       O706   2.058       .  S
Fe701       O712   1.936       .  S
Fe702       O709   2.101       .  S
Fe702       O713   2.070       .  S
Fe702       O712   1.958       .  S
Fe703       O721   2.082       .  S
Fe703       O715   2.042       .  S
O704        C711   1.270       .  A
O705        C719   1.270       .  A
O706        C711   1.266       .  A
O707        C710   1.272   1_565  A
O708        C720   1.264       .  A
O709        C722   1.271       .  A
C710        C929   1.416       .  S
C711        C932   1.444       .  S
O713        C716   1.274       .  A
O714        C716   1.272       .  A
C716        C926   1.430       .  S
O717        C722   1.263       .  A
C719        O721   1.270       .  A
C719        C927   1.432       .  S
Fe723       O736   2.060       .  S
Fe723       O728   2.103       .  S
Fe723       O734   1.934       .  S
Fe724       O727   2.076       .  S
Fe724       O731   2.015       .  S
Fe724       O735   2.060       .  S
Fe724       O740   2.022       .  S
Fe724       O734   1.932       .  S
Fe725       O743   2.037       .  S
Fe725       O737   2.098       .  S
Fe725       O726   2.053       .  S
O727        C741   1.274   1_565  A
O728        C733   1.283       .  A
O729        C732   1.261       .  A
O730        C742   1.277       .  A
O731        C744   1.262   1_565  A
C732        O737   1.272       .  A
C732        C934   1.430       .  S
C733        C889   1.469       .  S
O735        C738   1.264       .  A
O736        C738   1.264       .  A
C738        C936   1.431       .  S
O740        C742   1.255       .  A
C741        C930   1.416       .  S
Fe745       O761   2.131       .  S
Fe745       O751   2.030       .  S
Fe745       O758   2.060       .  S
Fe745       O750   2.103       .  S
Fe745       O756   1.934       .  S
Fe746       O749   2.076       .  S
Fe746       O753   2.015       .  S
Fe746       O757   2.060       .  S
Fe746       O762   2.022       .  S
Fe746       O756   1.932       .  S
Fe747       O765   2.037       .  S
Fe747       O752   2.133       .  S
Fe747       O759   2.098       .  S
Fe747       O748   2.053       .  S
Fe747       O756   1.959       .  S
O748        C755   1.274       .  A
O749        C763   1.274       .  A
O750        C755   1.283       .  A
O751        C754   1.261       .  A
O752        C764   1.277       .  A
O753        C766   1.262       .  A
C754        O759   1.272       .  A
C754        C925   1.430       .  S
C755        C867   1.469       .  S
O757        C760   1.264       .  A
O758        C760   1.264       .  A
C760        C928   1.431       .  S
O761        C766   1.284       .  A
O762        C764   1.255       .  A
C763        O765   1.262       .  A
C763        C942   1.416       .  S
C767        C769   1.542       .  S
C767        C771   1.535       .  S
C767        C770   1.541       .  S
C767        C920   1.475       .  S
C768        C772   1.526       .  S
C768        C774   1.532       .  S
C768        C773   1.541       .  S
C768        C922   1.475       .  S
C769        C777   1.385       .  A
C769        C772   1.384       .  A
C770        C781   1.372       .  A
C770        C773   1.408       .  A
C771        C785   1.394       .  A
C771        C774   1.394       .  A
C772        C775   1.375       .  A
C773        C779   1.380       .  A
C774        C782   1.376       .  A
C775        N776   1.358       .  A
C775        H788   1.083       .  S
N776        C777   1.365       .  A
N776        C876   1.432       .  S
C777        H778   1.083       .  S
C779        N780   1.358       .  A
N780        C781   1.358       .  A
N780        C924   1.403       .  S
C781        H787   1.083       .  S
C782        N783   1.356       .  A
N783        C785   1.355       .  A
C785        H786   1.083       .  S
Fe790       O806   2.051       .  S
Fe790       O796   2.062       .  S
Fe790       O803   2.067       .  S
Fe790       O795   2.058       .  S
Fe790       O801   1.936       .  S
Fe791       O794   2.057       .  S
Fe791       O798   2.101       .  S
Fe791       O802   2.070       .  S
Fe791       O807   2.101       .  S
Fe791       O801   1.958       .  S
Fe792       O810   2.082       .  S
Fe792       O797   2.044       .  S
Fe792       O804   2.042       .  S
Fe792       O793   2.092       .  S
Fe792       O801   1.964       .  S
O793        C800   1.270       .  A
O794        C808   1.270       .  A
O795        C800   1.266       .  A
O796        C799   1.272       .  A
O797        C809   1.264       .  A
O798        C811   1.271       .  A
C799        O804   1.263       .  A
C799        C918   1.416       .  S
C800        C919   1.444       .  S
O802        C805   1.274       .  A
O803        C805   1.272       .  A
C805        C909   1.430       .  S
O806        C811   1.263       .  A
O807        C809   1.274       .  A
C808        O810   1.270       .  A
C808        C911   1.432       .  S
C809        C916   1.434       .  S
C811        C914   1.444       .  S
C812        C814   1.542       .  S
C812        C816   1.535       .  S
C812        C815   1.541       .  S
C812        C907   1.475       .  S
C813        C817   1.526       .  S
C813        C819   1.531       .  S
C813        C818   1.541       .  S
C813        C913   1.475       .  S
C814        C822   1.385       .  A
C814        C817   1.384       .  A
C815        C826   1.372       .  A
C815        C818   1.408       .  A
C816        C830   1.394       .  A
C816        C819   1.394       .  A
C817        C820   1.375       .  A
C818        C824   1.380       .  A
C819        C827   1.376       .  A
C820        N821   1.358       .  A
C820        H833   1.083       .  S
N821        C822   1.365       .  A
N821        C898   1.432       .  S
C822        H823   1.083       .  S
C824        N825   1.358       .  A
C824        H834   1.082       .  S
N825        C826   1.358       .  A
N825       C1231   1.403       .  S
C826       H1148   1.083       .  S
C827        N828   1.356       .  A
C827        H829   1.083       .  S
N828        C830   1.355       .  A
N828        C878   1.440       .  S
C830        H831   1.083       .  S
H832       C1142   1.083       .  S
Fe835       O851   2.051       .  S
Fe835       O841   2.062       .  S
Fe835       O848   2.067       .  S
Fe835       O840   2.058       .  S
Fe835       O846   1.936       .  S
Fe836       O843   2.101       .  S
Fe836       O847   2.070       .  S
Fe836       O846   1.958       .  S
Fe837       O855   2.082       .  S
Fe837       O849   2.042       .  S
O838        C845   1.270       .  A
O839        C853   1.270       .  A
O840        C845   1.266       .  A
O842        C854   1.264       .  A
O843        C856   1.271       .  A
C844        O849   1.263       .  A
C845        C908   1.444       .  S
O847        C850   1.274       .  A
O848        C850   1.272       .  A
C850        C902   1.430       .  S
O851        C856   1.263       .  A
C853        O855   1.270       .  A
C853        C903   1.432       .  S
Fe857       O873   2.131       .  S
Fe857       O863   2.030       .  S
Fe857       O870   2.060       .  S
Fe857       O862   2.103       .  S
Fe857       O868   1.934       .  S
Fe858       O861   2.076       .  S
Fe858       O865   2.015       .  S
Fe858       O869   2.060       .  S
Fe858       O874   2.022       .  S
Fe858       O868   1.932       .  S
Fe859       O877   2.037       .  S
Fe859       O864   2.134       .  S
Fe859       O871   2.098       .  S
Fe859       O860   2.053       .  S
Fe859       O868   1.959       .  S
O860        C867   1.274   1_455  A
O861        C875   1.274       .  A
O862        C867   1.283   1_455  A
O863        C866   1.261       .  A
O864        C876   1.277       .  A
O865        C878   1.262       .  A
C866        O871   1.272       .  A
C866        C901   1.430       .  S
O869        C872   1.264       .  A
O870        C872   1.264       .  A
C872        C904   1.431       .  S
O873        C878   1.284       .  A
O874        C876   1.255       .  A
C875        O877   1.262       .  A
C875        C917   1.416       .  S
Fe879       O892   2.060       .  S
Fe879       O884   2.103       .  S
Fe879       O890   1.934       .  S
Fe880       O883   2.076       .  S
Fe880       O887   2.015       .  S
Fe880       O891   2.060       .  S
Fe880       O896   2.022       .  S
Fe880       O890   1.932       .  S
Fe881       O899   2.037       .  S
Fe881       O893   2.098       .  S
Fe881       O882   2.053       .  S
O883        C897   1.274   1_565  A
O884        C889   1.283       .  A
O885        C888   1.261       .  A
O886        C898   1.277       .  A
O887        C900   1.263   1_565  A
C888        O893   1.272       .  A
C888        C910   1.430       .  S
O891        C894   1.264       .  A
O892        C894   1.264       .  A
C894        C912   1.431       .  S
O896        C898   1.255       .  A
C897        C906   1.416       .  S
C901        C902   1.203       .  T
C903        C904   1.204       .  T
C905        C906   1.193       .  T
C907        C908   1.211       .  T
C909        C910   1.203       .  T
C911        C912   1.204       .  T
C913        C914   1.211       .  T
C915       N1141   1.403       .  S
C915        C916   1.207       .  T
C917        C918   1.193       .  T
C919        C920   1.211       .  T
C921        C922   1.211       .  T
C923       C1240   1.207       .  T
C924       C1239   1.207   1_554  T
C925        C926   1.203       .  T
C927        C928   1.204       .  T
C929        C930   1.193       .  T
C931        C932   1.211       .  T
C933        C934   1.203       .  T
C935        C936   1.204       .  T
C937        C938   1.211       .  T
C939       C1256   1.207       .  T
C940       C1255   1.207   1_554  T
C941        C942   1.193       .  T
C943        C944   1.211       .  T
C945        C946   1.211       .  T
C947        N962   1.403       .  S
C947        C948   1.207       .  T
C949        C951   1.542       .  S
C949        C953   1.535       .  S
C949        C952   1.541       .  S
C949       C1260   1.475       .  S
C950        C954   1.526       .  S
C950        C956   1.531       .  S
C950        C955   1.541       .  S
C950       C1261   1.475       .  S
C951        C959   1.385       .  A
C951        C954   1.384       .  A
C952        C963   1.372   1_556  A
C952        C955   1.408       .  A
C953        C967   1.394       .  A
C953        C956   1.394       .  A
C954        C957   1.375       .  A
C955        C961   1.380       .  A
C956        C964   1.376       .  A
C957        N958   1.358       .  A
C957        H970   1.083       .  S
N958        C959   1.365       .  A
N958       C1080   1.432       .  S
C959        H960   1.083       .  S
C961        N962   1.358   1_556  A
N962        C963   1.358       .  A
C964        N965   1.356       .  A
N965        C967   1.355       .  A
C967        H968   1.083       .  S
Fe972       O988   2.051       .  S
Fe972       O978   2.062       .  S
Fe972       O985   2.068       .  S
Fe972       O977   2.058       .  S
Fe972       O983   1.936       .  S
Fe973       O976   2.057       .  S
Fe973       O980   2.101       .  S
Fe973       O984   2.070       .  S
Fe973       O989   2.101       .  S
Fe973       O983   1.958       .  S
Fe974       O992   2.082       .  S
Fe974       O979   2.044       .  S
Fe974       O986   2.042       .  S
Fe974       O975   2.092       .  S
Fe974       O983   1.964       .  S
O975        C982   1.270       .  A
O976        C990   1.270       .  A
O977        C982   1.266       .  A
O978        C981   1.272       .  A
O979        C991   1.264       .  A
O980        C993   1.271       .  A
C981        O986   1.263       .  A
C981       C1257   1.416       .  S
C982       C1259   1.444       .  S
O984        C987   1.274       .  A
O985        C987   1.272       .  A
C987       C1249   1.430       .  S
O988        C993   1.263       .  A
O989        C991   1.274       .  A
C990        O992   1.270       .  A
C990       C1251   1.432       .  S
C991       C1255   1.434       .  S
C993       C1253   1.444       .  S
C994        C996   1.542       .  S
C994        C998   1.535       .  S
C994        C997   1.541       .  S
C994       C1247   1.475       .  S
C995        C999   1.526       .  S
C995       C1001   1.531       .  S
C995       C1000   1.541       .  S
C995       C1254   1.475       .  S
C996       C1004   1.385       .  A
C996        C999   1.384       .  A
C997       C1008   1.372       .  A
C997       C1000   1.408       .  A
C998       C1012   1.394       .  A
C998       C1001   1.394       .  A
C999       C1002   1.375       .  A
C1000      C1006   1.380       .  A
C1001      C1009   1.376       .  A
C1002      N1003   1.358       .  A
C1002      H1015   1.083       .  S
N1003      C1004   1.365       .  A
N1003      C1058   1.432       .  S
C1004      H1005   1.083       .  S
C1006      N1007   1.358       .  A
C1006      H1016   1.082       .  S
N1007      C1008   1.358       .  A
N1007      C1256   1.403       .  S
C1008      H1014   1.083       .  S
C1009      N1010   1.356       .  A
C1009      H1011   1.083       .  S
N1010      C1012   1.355       .  A
N1010      C1082   1.440       .  S
C1012      H1013   1.083       .  S
Fe1017     O1033   2.051       .  S
Fe1017     O1023   2.062       .  S
Fe1017     O1030   2.068       .  S
Fe1017     O1022   2.058       .  S
Fe1017     O1028   1.936       .  S
Fe1018     O1025   2.101       .  S
Fe1018     O1029   2.070       .  S
Fe1018     O1028   1.958       .  S
Fe1019     O1037   2.082       .  S
Fe1019     O1031   2.042       .  S
O1020      C1027   1.270       .  A
O1021      C1035   1.270       .  A
O1022      C1027   1.266       .  A
O1023      C1026   1.272   1_565  A
O1024      C1036   1.264       .  A
O1025      C1038   1.271       .  A
C1026      C1245   1.416       .  S
C1027      C1248   1.444       .  S
O1029      C1032   1.274       .  A
O1030      C1032   1.272       .  A
C1032      C1242   1.430       .  S
O1033      C1038   1.263       .  A
C1035      O1037   1.270       .  A
C1035      C1243   1.432       .  S
Fe1039     O1052   2.060       .  S
Fe1039     O1044   2.103       .  S
Fe1039     O1050   1.934       .  S
Fe1040     O1043   2.076       .  S
Fe1040     O1047   2.015       .  S
Fe1040     O1051   2.060       .  S
Fe1040     O1056   2.022       .  S
Fe1040     O1050   1.932       .  S
Fe1041     O1059   2.037       .  S
Fe1041     O1053   2.098       .  S
Fe1041     O1042   2.053       .  S
O1043      C1057   1.274   1_565  A
O1044      C1049   1.283       .  A
O1045      C1048   1.261       .  A
O1046      C1058   1.277       .  A
O1047      C1060   1.262   1_565  A
C1048      O1053   1.272       .  A
C1048      C1250   1.430       .  S
C1049      C1205   1.469       .  S
O1051      C1054   1.264       .  A
O1052      C1054   1.264       .  A
C1054      C1252   1.431       .  S
O1056      C1058   1.255       .  A
C1057      C1246   1.416       .  S
Fe1061     O1077   2.131       .  S
Fe1061     O1067   2.030       .  S
Fe1061     O1074   2.060       .  S
Fe1061     O1066   2.103       .  S
Fe1061     O1072   1.934       .  S
Fe1062     O1065   2.076       .  S
Fe1062     O1069   2.015       .  S
Fe1062     O1073   2.060       .  S
Fe1062     O1078   2.022       .  S
Fe1062     O1072   1.932       .  S
Fe1063     O1081   2.037       .  S
Fe1063     O1068   2.133       .  S
Fe1063     O1075   2.098       .  S
Fe1063     O1064   2.053       .  S
Fe1063     O1072   1.959       .  S
O1064      C1071   1.274       .  A
O1065      C1079   1.274       .  A
O1066      C1071   1.283       .  A
O1067      C1070   1.261       .  A
O1068      C1080   1.277       .  A
O1069      C1082   1.262       .  A
C1070      O1075   1.272       .  A
C1070      C1241   1.430       .  S
C1071      C1183   1.469       .  S
O1073      C1076   1.264       .  A
O1074      C1076   1.264       .  A
C1076      C1244   1.431       .  S
O1077      C1082   1.284       .  A
O1078      C1080   1.255       .  A
C1079      O1081   1.262       .  A
C1079      C1258   1.416       .  S
C1083      C1085   1.542       .  S
C1083      C1087   1.535       .  S
C1083      C1086   1.541       .  S
C1083      C1236   1.475       .  S
C1084      C1088   1.526       .  S
C1084      C1090   1.532       .  S
C1084      C1089   1.541       .  S
C1084      C1238   1.475       .  S
C1085      C1093   1.385       .  A
C1085      C1088   1.384       .  A
C1086      C1097   1.372       .  A
C1086      C1089   1.408       .  A
C1087      C1101   1.394       .  A
C1087      C1090   1.394       .  A
C1088      C1091   1.375       .  A
C1089      C1095   1.380       .  A
C1090      C1098   1.376       .  A
C1091      N1092   1.358       .  A
C1091      H1104   1.083       .  S
N1092      C1093   1.365       .  A
N1092      C1192   1.432       .  S
C1093      H1094   1.083       .  S
C1095      N1096   1.358       .  A
N1096      C1097   1.358       .  A
N1096      C1240   1.403       .  S
C1097      H1103   1.083       .  S
C1098      N1099   1.356       .  A
N1099      C1101   1.355       .  A
C1101      H1102   1.083       .  S
Fe1106     O1122   2.051       .  S
Fe1106     O1112   2.062       .  S
Fe1106     O1119   2.067       .  S
Fe1106     O1111   2.058       .  S
Fe1106     O1117   1.936       .  S
Fe1107     O1110   2.057       .  S
Fe1107     O1114   2.101       .  S
Fe1107     O1118   2.070       .  S
Fe1107     O1123   2.101       .  S
Fe1107     O1117   1.958       .  S
Fe1108     O1126   2.082       .  S
Fe1108     O1113   2.044       .  S
Fe1108     O1120   2.042       .  S
Fe1108     O1109   2.092       .  S
Fe1108     O1117   1.964       .  S
O1109      C1116   1.270       .  A
O1110      C1124   1.270       .  A
O1111      C1116   1.266       .  A
O1112      C1115   1.272       .  A
O1113      C1125   1.264       .  A
O1114      C1127   1.271       .  A
C1115      O1120   1.263       .  A
C1115      C1234   1.416       .  S
C1116      C1235   1.444       .  S
O1118      C1121   1.274       .  A
O1119      C1121   1.272       .  A
C1121      C1225   1.430       .  S
O1122      C1127   1.263       .  A
O1123      C1125   1.274       .  A
C1124      O1126   1.270       .  A
C1124      C1227   1.432       .  S
C1125      C1232   1.434       .  S
C1127      C1230   1.444       .  S
C1128      C1130   1.542       .  S
C1128      C1132   1.535       .  S
C1128      C1131   1.541       .  S
C1128      C1223   1.475       .  S
C1129      C1133   1.526       .  S
C1129      C1135   1.531       .  S
C1129      C1134   1.541       .  S
C1129      C1229   1.475       .  S
C1130      C1138   1.385       .  A
C1130      C1133   1.384       .  A
C1131      C1142   1.372   1_556  A
C1131      C1134   1.408       .  A
C1132      C1146   1.394       .  A
C1132      C1135   1.394       .  A
C1133      C1136   1.375       .  A
C1134      C1140   1.380       .  A
C1135      C1143   1.376       .  A
C1136      N1137   1.358       .  A
C1136      H1149   1.083       .  S
N1137      C1138   1.365       .  A
N1137      C1214   1.432       .  S
C1138      H1139   1.083       .  S
C1140      N1141   1.358   1_556  A
C1140      H1150   1.082       .  S
N1141      C1142   1.358       .  A
C1143      N1144   1.356       .  A
C1143      H1145   1.083       .  S
N1144      C1146   1.355       .  A
N1144      C1194   1.440       .  S
C1146      H1147   1.083       .  S
Fe1151     O1167   2.051       .  S
Fe1151     O1157   2.062       .  S
Fe1151     O1164   2.067       .  S
Fe1151     O1156   2.058       .  S
Fe1151     O1162   1.936       .  S
Fe1152     O1159   2.101       .  S
Fe1152     O1163   2.070       .  S
Fe1152     O1162   1.958       .  S
Fe1153     O1171   2.082       .  S
Fe1153     O1165   2.042       .  S
O1154      C1161   1.270       .  A
O1155      C1169   1.270       .  A
O1156      C1161   1.266       .  A
O1158      C1170   1.264       .  A
O1159      C1172   1.271       .  A
C1160      O1165   1.263       .  A
C1161      C1224   1.444       .  S
O1163      C1166   1.274       .  A
O1164      C1166   1.272       .  A
C1166      C1218   1.430       .  S
O1167      C1172   1.263       .  A
C1169      O1171   1.270       .  A
C1169      C1219   1.432       .  S
Fe1173     O1189   2.131       .  S
Fe1173     O1179   2.030       .  S
Fe1173     O1186   2.060       .  S
Fe1173     O1178   2.103       .  S
Fe1173     O1184   1.934       .  S
Fe1174     O1177   2.076       .  S
Fe1174     O1181   2.015       .  S
Fe1174     O1185   2.060       .  S
Fe1174     O1190   2.022       .  S
Fe1174     O1184   1.932       .  S
Fe1175     O1193   2.037       .  S
Fe1175     O1180   2.134       .  S
Fe1175     O1187   2.098       .  S
Fe1175     O1176   2.053       .  S
Fe1175     O1184   1.959       .  S
O1176      C1183   1.274   1_455  A
O1177      C1191   1.274       .  A
O1178      C1183   1.283   1_455  A
O1179      C1182   1.261       .  A
O1180      C1192   1.277       .  A
O1181      C1194   1.262       .  A
C1182      O1187   1.272       .  A
C1182      C1217   1.430       .  S
O1185      C1188   1.264       .  A
O1186      C1188   1.264       .  A
C1188      C1220   1.431       .  S
O1189      C1194   1.284       .  A
O1190      C1192   1.255       .  A
C1191      O1193   1.262       .  A
C1191      C1233   1.416       .  S
Fe1195     O1208   2.060       .  S
Fe1195     O1200   2.103       .  S
Fe1195     O1206   1.934       .  S
Fe1196     O1199   2.076       .  S
Fe1196     O1203   2.015       .  S
Fe1196     O1207   2.060       .  S
Fe1196     O1212   2.022       .  S
Fe1196     O1206   1.932       .  S
Fe1197     O1215   2.037       .  S
Fe1197     O1209   2.098       .  S
Fe1197     O1198   2.053       .  S
O1199      C1213   1.274   1_565  A
O1200      C1205   1.283       .  A
O1201      C1204   1.261       .  A
O1202      C1214   1.277       .  A
O1203      C1216   1.263   1_565  A
C1204      O1209   1.272       .  A
C1204      C1226   1.430       .  S
O1207      C1210   1.264       .  A
O1208      C1210   1.264       .  A
C1210      C1228   1.431       .  S
O1212      C1214   1.255       .  A
C1213      C1222   1.416       .  S
C1217      C1218   1.203       .  T
C1219      C1220   1.204       .  T
C1221      C1222   1.193       .  T
C1223      C1224   1.211       .  T
C1225      C1226   1.203       .  T
C1227      C1228   1.204       .  T
C1229      C1230   1.211       .  T
C1231      C1232   1.207       .  T
C1233      C1234   1.193       .  T
C1235      C1236   1.211       .  T
C1237      C1238   1.211       .  T
C1241      C1242   1.203       .  T
C1243      C1244   1.204       .  T
C1245      C1246   1.193       .  T
C1247      C1248   1.211       .  T
C1249      C1250   1.203       .  T
C1251      C1252   1.204       .  T
C1253      C1254   1.211       .  T
C1257      C1258   1.193       .  T
C1259      C1260   1.211       .  T
C1261      C1262   1.211       .  T
C1263      C1264   1.207       .  T
