geometry optimzed in LAMMPS
_audit_creation_date              2020-11-30 
_audit_creation_method            'lammps2cif' 
_symmetry_space_group_name_H-M    'P1' 
_symmetry_Int_Tables_number       1 
_symmetry_cell_setting            triclinic 
loop_ 
_symmetry_equiv_pos_as_xyz 
  x,y,z 
_cell_length_a                    39.359560389446465 
_cell_length_b                    39.63002788561497 
_cell_length_c                    26.892240302902255 
_cell_angle_alpha                 89.89191319732652 
_cell_angle_beta                  89.95834088671776 
_cell_angle_gamma                 120.30911768371365 
loop_ 
_atom_site_label 
_atom_site_type_symbol 
_atom_site_fract_x 
_atom_site_fract_y 
_atom_site_fract_z 
_atom_site_charge 
C1          C  0.21158718  0.38836317  0.53963378     0.02930
C2          C  0.23260085  0.42929364  0.53896475    -0.13220
C3          C  0.22387004  0.44975318  0.50364196     0.00430
C4          C  0.19405077  0.42906656  0.46878856    -0.11740
C5          C  0.17161677  0.38804661  0.47034238     0.02920
C6          C  0.18104048  0.36772963  0.50546069    -0.11160
H7          H  0.25620021  0.44519478  0.56537105     0.08520
H8          H  0.18804830  0.44501885  0.44070098     0.06050
H9          H  0.16455766  0.33607245  0.50647476     0.05890
C10         C  0.39292296  0.21439629  0.96704054     0.02930
C11         C  0.43419005  0.23456793  0.96841612    -0.13220
C12         C  0.45397750  0.22559098  0.00449093     0.00430
C13         C  0.43241540  0.19631672  0.03964638    -0.11740
C14         C  0.39105330  0.17702758  0.04043027     0.02920
C15         C  0.37149280  0.18610803  0.00363654    -0.11160
H16         H  0.45099102  0.25750632  0.94157138     0.08520
H17         H  0.44798203  0.18855894  0.06630960     0.06050
H18         H  0.33961918  0.17110547  0.00332638     0.05890
C19         C  0.22105242  0.39141444  0.97125861     0.02930
C20         C  0.23934855  0.43227328  0.96882756    -0.13220
C21         C  0.22749420  0.45233697  0.00053705     0.00430
C22         C  0.19669183  0.43149477  0.03417494    -0.11740
C23         C  0.17917405  0.39071771  0.03882336     0.02920
C24         C  0.19105678  0.37073444  0.00637156    -0.11160
H25         H  0.26272159  0.44848095  0.94211129     0.08520
H26         H  0.18687817  0.44728254  0.05733500     0.06050
H27         H  0.17746322  0.33924412  0.00880254     0.05890
C28         C  0.77667853  0.17355581  0.53344114     0.02930
C29         C  0.75543555  0.19319523  0.53140852    -0.13220
C30         C  0.76594078  0.22375462  0.49732653     0.00430
C31         C  0.79709241  0.23356480  0.46413578    -0.11740
C32         C  0.81887181  0.21439560  0.46618246     0.02920
C33         C  0.80832846  0.18413715  0.50082330    -0.11160
H34         H  0.73078467  0.18469613  0.55640793     0.08520
H35         H  0.80466396  0.25649043  0.43689785     0.06050
H36         H  0.82480906  0.16900855  0.50262332     0.05890
C37         C  0.77731219  0.17316811  0.96482592     0.02930
C38         C  0.75870622  0.19542086  0.96509869    -0.13220
C39         C  0.76919141  0.22503603  0.00018002     0.00430
C40         C  0.79910788  0.23316234  0.03441367    -0.11740
C41         C  0.81798768  0.21102693  0.03497715     0.02920
C42         C  0.80600365  0.18019476  0.00081843    -0.11160
H43         H  0.73574743  0.18939699  0.93832013     0.08520
H44         H  0.80762166  0.25681061  0.06065721     0.06050
H45         H  0.81917368  0.16191788  0.00178007     0.05890
C46         C  0.62403485  0.30973883  0.00566994     0.02930
C47         C  0.64544382  0.29021289  0.00448849    -0.13220
C48         C  0.68676701  0.31119963  0.00430707     0.00430
C49         C  0.70662470  0.35218099  0.00660100    -0.11740
C50         C  0.68568882  0.37225876  0.00749600     0.02920
C51         C  0.64437794  0.35070849  0.00841069    -0.11160
H52         H  0.62988146  0.25856431  0.00355468     0.08520
H53         H  0.73850016  0.36852641  0.00738317     0.06050
H54         H  0.62796005  0.36585808  0.01071346     0.05890
C55         C  0.78563949  0.60387991  0.03732214     0.02930
C56         C  0.76487525  0.56284413  0.03937841    -0.13220
C57         C  0.77405717  0.54115171  0.00675542     0.00430
C58         C  0.80437138  0.56043718  0.97203547    -0.11740
C59         C  0.82578877  0.60141145  0.96987247     0.02920
C60         C  0.81585371  0.62307493  0.00197320    -0.11160
H61         H  0.74132750  0.54771296  0.06621687     0.08520
H62         H  0.81122660  0.54352247  0.94655360     0.06050
H63         H  0.83157991  0.65468097  0.99944602     0.05890
O64         O  0.03932702  0.33521580  0.19728083    -0.73140
O65         O  0.95552221  0.29460909  0.30144533    -0.74120
O66         O  0.03825923  0.33522937  0.30199641    -0.62740
O67         O  0.95540509  0.29390255  0.19675567    -0.71150
O68         O  0.95473157  0.23749809  0.19655708    -0.70700
O69         O  0.03817437  0.27929542  0.30315681    -0.61960
O70         O  0.95418742  0.23803966  0.30261321    -0.74470
O71         O  0.03868004  0.27883643  0.19687229    -0.73250
Cu72       Cu  0.99716579  0.31661705  0.24915788     1.04560
Cu73       Cu  0.99643177  0.25636611  0.24973466     1.04330
C74         C  0.05258074  0.31381705  0.18105840     0.93060
C75         C  0.94157822  0.26007495  0.31874922     0.92200
C76         C  0.05125272  0.31394591  0.31959971     0.84340
C77         C  0.94150715  0.25908315  0.18071993     0.90610
C78         C  0.17944547  0.77639446  0.53312390     0.02930
C79         C  0.19594903  0.75256762  0.52540576    -0.13220
C80         C  0.22446720  0.76193334  0.48855574     0.00430
C81         C  0.23518600  0.79402621  0.45739704    -0.11740
C82         C  0.21867141  0.81786474  0.46401911     0.02920
C83         C  0.19076934  0.80889356  0.50189048    -0.11160
H84         H  0.18696834  0.72690433  0.54831947     0.08520
H85         H  0.25665021  0.80056623  0.42818008     0.06050
H86         H  0.17818880  0.82744238  0.50729714     0.05890
C87         C  0.30772910  0.67701239  0.47594972     0.02930
C88         C  0.28888310  0.63693627  0.48649137    -0.13220
C89         C  0.31069972  0.61807797  0.49085953     0.00430
C90         C  0.35198778  0.64022854  0.48975245    -0.11740
C91         C  0.37170280  0.68035589  0.47762404     0.02920
C92         C  0.34872686  0.69790292  0.46914701    -0.11160
H93         H  0.25726704  0.62033621  0.49167295     0.08520
H94         H  0.36828380  0.62588278  0.49918700     0.06050
H95         H  0.36262962  0.72838707  0.45859901     0.05890
C96         C  0.60681753  0.78373923  0.46269224     0.02930
C97         C  0.56670073  0.76875237  0.45371921    -0.13220
C98         C  0.54334171  0.77577756  0.48678723     0.00430
C99         C  0.56191240  0.80120989  0.52697915    -0.11740
C100        C  0.60274956  0.81862640  0.53485104     0.02920
C101        C  0.62490443  0.80919683  0.50265473    -0.11160
H102        H  0.55348703  0.75030212  0.42153494     0.08520
H103        H  0.54457171  0.80722773  0.55260129     0.06050
H104        H  0.65608045  0.82109972  0.50910767     0.05890
C105        C  0.39326259  0.21327356  0.53493973     0.02930
C106        C  0.43385776  0.23757259  0.52600024    -0.13220
C107        C  0.45290927  0.22799352  0.48940315     0.00430
C108        C  0.43101709  0.19570929  0.45887807    -0.11740
C109        C  0.39048005  0.17142390  0.46651625     0.02920
C110        C  0.37175392  0.18018795  0.50461120    -0.11160
H111        H  0.45093922  0.26385564  0.54763385     0.08520
H112        H  0.44576894  0.18900955  0.42978915     0.06050
H113        H  0.34052668  0.16091293  0.51087440     0.05890
C114        C  0.68350591  0.30964059  0.48550635     0.02930
C115        C  0.64254535  0.28969744  0.48010837    -0.13220
C116        C  0.62232965  0.31035922  0.47713868     0.00430
C117        C  0.64359246  0.35133504  0.47881002    -0.11740
C118        C  0.68455856  0.37169848  0.48592493     0.02920
C119        C  0.70431696  0.35049040  0.48919277    -0.11160
H120        H  0.62634753  0.25803337  0.47887232     0.08520
H121        H  0.62803658  0.36729283  0.47574237     0.06050
H122        H  0.73592556  0.36571353  0.49453362     0.05890
C123        C  0.78621695  0.60360419  0.46315039     0.02930
C124        C  0.76474578  0.56259852  0.46114871    -0.13220
C125        C  0.77381648  0.54040753  0.49325151     0.00430
C126        C  0.80424532  0.55918093  0.52780464    -0.11740
C127        C  0.82538280  0.60004251  0.53068774     0.02920
C128        C  0.81639286  0.62226245  0.49833542    -0.11160
H129        H  0.74110678  0.54795554  0.43443909     0.08520
H130        H  0.81118726  0.54200355  0.55278612     0.06050
H131        H  0.83262497  0.65387224  0.50076531     0.05890
C132        C  0.17728328  0.78144041  0.96486496     0.02930
C133        C  0.19850645  0.76174341  0.96727118    -0.13220
C134        C  0.22195996  0.76573414  0.00889949     0.00430
C135        C  0.22682792  0.79321327  0.04550414    -0.11740
C136        C  0.20865787  0.81569876  0.04081286     0.02920
C137        C  0.18277222  0.80876060  0.00147541    -0.11160
H138        H  0.19606771  0.74293148  0.93677610     0.08520
H139        H  0.24502921  0.79773565  0.07780110     0.06050
H140        H  0.16765199  0.82519721  0.99869922     0.05890
C141        C  0.30867508  0.68200159  0.01564504     0.02930
C142        C  0.28905602  0.64088842  0.01568862    -0.13220
C143        C  0.30880174  0.62100348  0.00285911     0.00430
C144        C  0.34936994  0.64241169  0.99354582    -0.11740
C145        C  0.37058303  0.68339070  0.99756927     0.02920
C146        C  0.34962505  0.70276587  0.00748595    -0.11160
H147        H  0.25809297  0.62409614  0.02505087     0.08520
H148        H  0.36443984  0.62687441  0.98355162     0.06050
H149        H  0.36532637  0.73423477  0.00877306     0.05890
C150        C  0.60514861  0.78387314  0.03925536     0.02930
C151        C  0.56375167  0.76482721  0.04004300    -0.13220
C152        C  0.54259710  0.76788799  0.99989819     0.00430
C153        C  0.56395973  0.79401502  0.96129174    -0.11740
C154        C  0.60512956  0.81687754  0.96287690     0.02920
C155        C  0.62575301  0.81054168  0.00080511    -0.11160
H156        H  0.54819069  0.74700466  0.07191607     0.08520
H157        H  0.54873478  0.79751004  0.92996041     0.06050
H158        H  0.65760094  0.82641463  0.00039494     0.05890
O159        O  0.74873335  0.03925963  0.80257308    -0.73140
O160        O  0.70971884  0.95655472  0.69659568    -0.74120
O161        O  0.74970063  0.03999819  0.69691971    -0.62740
O162        O  0.70859681  0.95612686  0.80251474    -0.71150
O163        O  0.65223624  0.95593567  0.80256270    -0.70700
O164        O  0.69129065  0.03585041  0.69420020    -0.61960
O165        O  0.65162252  0.95309453  0.69822180    -0.74470
O166        O  0.69194116  0.03855013  0.79976713    -0.73250
Cu167      Cu  0.73126702  0.99807348  0.74962359     1.04560
Cu168      Cu  0.66984674  0.99584542  0.74862062     1.04330
C169        C  0.72645332  0.05194976  0.81758430     0.93060
C170        C  0.67421855  0.94133563  0.68145509     0.92200
C171        C  0.72667115  0.05077668  0.67872960     0.84340
C172        C  0.67383037  0.94312350  0.81964623     0.90610
O173        O  0.71692989  0.75459644  0.30363616    -0.73140
O174        O  0.75595673  0.71153086  0.19636373    -0.74120
O175        O  0.71384797  0.75297861  0.19748475    -0.62740
O176        O  0.75841389  0.71279137  0.30283014    -0.71150
O177        O  0.70139235  0.65702006  0.30444711    -0.70700
O178        O  0.65780111  0.69664868  0.20141807    -0.61960
O179        O  0.69913808  0.65567252  0.19917309    -0.74470
O180        O  0.66069241  0.69826246  0.30586527    -0.73250
Cu181      Cu  0.73840477  0.73502371  0.24995615     1.04560
Cu182      Cu  0.67795928  0.67505213  0.25277233     1.04330
C183        C  0.68244000  0.73315426  0.32161134     0.93060
C184        C  0.73337724  0.67681100  0.18041496     0.92200
C185        C  0.67839666  0.73071640  0.18280153     0.84340
C186        C  0.73623292  0.67856824  0.32087763     0.90610
O187        O  0.27774241  0.03689724  0.19842671    -0.73140
O188        O  0.23926083  0.95279464  0.30361782    -0.74120
O189        O  0.27905957  0.03580336  0.30464704    -0.62740
O190        O  0.23769760  0.95354888  0.19774604    -0.71150
O191        O  0.29579833  0.95723735  0.19518843    -0.70700
O192        O  0.33578055  0.03672043  0.30304848    -0.61960
O193        O  0.29642567  0.95473901  0.30003268    -0.74470
O194        O  0.33560116  0.03976202  0.19860762    -0.73250
Cu195      Cu  0.25633044  0.99467712  0.25111133     1.04560
Cu196      Cu  0.31777666  0.99714276  0.24904612     1.04330
C197        C  0.31310080  0.05185009  0.18263030     0.93060
C198        C  0.26195691  0.94051644  0.31848395     0.92200
C199        C  0.31399210  0.04903145  0.32102667     0.84340
C200        C  0.26058990  0.94266390  0.17939323     0.90610
O201        O  0.04283056  0.69298638  0.80282170    -0.73140
O202        O  0.96134373  0.64891914  0.69573989    -0.74120
O203        O  0.04460837  0.69257462  0.69837287    -0.62740
O204        O  0.95962741  0.64937485  0.80158660    -0.71150
O205        O  0.95821800  0.70464067  0.80082578    -0.70700
O206        O  0.04149577  0.74695895  0.69426601    -0.61960
O207        O  0.95790007  0.70317331  0.69552758    -0.74470
O208        O  0.04206484  0.74867790  0.79988336    -0.73250
Cu209      Cu  0.00206582  0.66900496  0.74967111     1.04560
Cu210      Cu  0.99983089  0.72781953  0.74757919     1.04330
C211        C  0.05564238  0.72792625  0.81759077     0.93060
C212        C  0.94681980  0.66905076  0.67873749     0.92200
C213        C  0.05645855  0.72648366  0.68011863     0.84340
C214        C  0.94560964  0.67017159  0.81777591     0.90610
O215        O  0.30251211  0.34018650  0.80274061    -0.73140
O216        O  0.34166757  0.29671226  0.69795612    -0.74120
O217        O  0.30113056  0.33892237  0.69700338    -0.62740
O218        O  0.34293961  0.29804177  0.80235905    -0.71150
O219        O  0.28587413  0.24200876  0.80383132    -0.70700
O220        O  0.24339319  0.28368838  0.69971006    -0.61960
O221        O  0.28420045  0.24119959  0.69781097    -0.74470
O222        O  0.24544785  0.28445354  0.80503470    -0.73250
Cu223      Cu  0.32398094  0.32042354  0.74989166     1.04560
Cu224      Cu  0.26267842  0.26083861  0.75159362     1.04330
C225        C  0.26792150  0.31924323  0.82070859     0.93060
C226        C  0.31940428  0.26213460  0.68163547     0.92200
C227        C  0.26569783  0.31788360  0.68200778     0.84340
C228        C  0.32106060  0.26357308  0.81941660     0.90610
C229        C  0.61201688  0.87683336  0.92539914    -0.09350
C230        C  0.62525426  0.84999356  0.92767070     0.06840
C231        C  0.65590816  0.85500861  0.89584603    -0.03120
C232        C  0.67219536  0.88623458  0.86196413    -0.07570
C233        C  0.65802744  0.91245329  0.85864509     0.05960
C234        C  0.62779326  0.90765559  0.89144725    -0.02600
Br235      Br  0.60681452  0.94219760  0.89351103    -0.02290
H236        H  0.58885150  0.87360492  0.95026196     0.09870
H237        H  0.69509877  0.88916667  0.83688873     0.07890
Br238      Br  0.67440219  0.81855470  0.89431547    -0.02720
C239        C  0.67624420  0.78470611  0.13708161    -0.09350
C240        C  0.66062564  0.74434845  0.14468209     0.06840
C241        C  0.62730167  0.71783303  0.11666190    -0.03120
C242        C  0.61074549  0.73185551  0.08254604    -0.07570
C243        C  0.62561182  0.77198815  0.07572148     0.05960
C244        C  0.65887505  0.79867327  0.10342765    -0.02600
Br245      Br  0.68005673  0.85413054  0.10001954    -0.02290
H246        H  0.70137720  0.80559920  0.15857318     0.09870
H247        H  0.58578597  0.71092975  0.06084779     0.07890
Br248      Br  0.60238355  0.66187926  0.12131138    -0.02720
C249        C  0.47822972  0.76280934  0.97773025    -0.09350
C250        C  0.49848412  0.74535792  0.99869727     0.06840
C251        C  0.47592317  0.70641240  0.01618266    -0.03120
C252        C  0.43485535  0.68775810  0.01658714    -0.07570
C253        C  0.41463800  0.70508255  0.99531053     0.05960
C254        C  0.43719482  0.74253804  0.97349245    -0.02600
Br255      Br  0.41519095  0.76626798  0.93201027    -0.02290
H256        H  0.49430958  0.79231828  0.96323879     0.09870
H257        H  0.41866651  0.65890327  0.03307967     0.07890
Br258      Br  0.49796372  0.67456999  0.03478974    -0.02720
C259        C  0.25823036  0.88098475  0.07071663    -0.09350
C260        C  0.21998885  0.84890970  0.07453697     0.06840
C261        C  0.19407680  0.84908967  0.11041203    -0.03120
C262        C  0.20728592  0.88065894  0.14322256    -0.07570
C263        C  0.24618846  0.91217349  0.14071654     0.05960
C264        C  0.27140576  0.91261739  0.10303662    -0.02600
Br265      Br  0.32351807  0.95613597  0.09221173    -0.02290
H266        H  0.27798564  0.88135452  0.04232874     0.09870
H267        H  0.18755152  0.87988106  0.17190488     0.07890
Br268      Br  0.14142509  0.80594485  0.11767072    -0.02720
C269        C  0.10733829  0.75232518  0.94134140    -0.09350
C270        C  0.14691706  0.77097044  0.92639419     0.06840
C271        C  0.15630137  0.77709132  0.87538898    -0.03120
C272        C  0.12608763  0.76376839  0.84020151    -0.07570
C273        C  0.08658741  0.74428445  0.85530436     0.05960
C274        C  0.07720275  0.73876872  0.90616773    -0.02600
Br275      Br  0.02365950  0.71178909  0.92894320    -0.02290
H276        H  0.09985082  0.74729103  0.98049155     0.09870
H277        H  0.13338075  0.76805568  0.80095610     0.07890
Br278      Br  0.20972770  0.80391015  0.85223734    -0.02720
C279        C  0.27983049  0.75985864  0.03639972    -0.09350
C280        C  0.24261812  0.74276632  0.01338974     0.06840
C281        C  0.22593775  0.70382114  0.99625942    -0.03120
C282        C  0.24818985  0.68533867  0.99675481    -0.07570
C283        C  0.28562675  0.70263512  0.01902700     0.05960
C284        C  0.30013758  0.73952864  0.04186923    -0.02600
Br285      Br  0.34453459  0.76226003  0.08611563    -0.02290
H286        H  0.29337497  0.78918741  0.05119422     0.09870
H287        H  0.23552061  0.65678032  0.97975878     0.07890
Br288      Br  0.17177032  0.67176571  0.97678900    -0.02720
C289        C  0.89267871  0.62062912  0.56004090    -0.09350
C290        C  0.85680319  0.61925852  0.56786563     0.06840
C291        C  0.85087168  0.63477488  0.61185206    -0.03120
C292        C  0.88090392  0.65169047  0.64720963    -0.07570
C293        C  0.91662448  0.65257696  0.63975992     0.05960
C294        C  0.92255748  0.63711186  0.59562493    -0.02600
Br295      Br  0.97141611  0.63932410  0.58124397    -0.02290
H296        H  0.89736793  0.60874518  0.52618121     0.09870
H297        H  0.87596468  0.66319817  0.68124152     0.07890
Br298      Br  0.80153654  0.63146922  0.62627152    -0.02720
C299        C  0.78913300  0.66991551  0.35888077    -0.09350
C300        C  0.75050811  0.66311107  0.36071526     0.06840
C301        C  0.72511725  0.63933542  0.39909879    -0.03120
C302        C  0.73776055  0.62109280  0.43271848    -0.07570
C303        C  0.77568122  0.62642265  0.42950563     0.05960
C304        C  0.80180568  0.65168006  0.39282667    -0.02600
Br305      Br  0.85383338  0.65968655  0.38509486    -0.02290
H306        H  0.80895754  0.68808235  0.32968224     0.09870
H307        H  0.71774117  0.60232602  0.46140295     0.07890
Br308      Br  0.67330418  0.63169446  0.40883248    -0.02720
C309        C  0.71713111  0.47711450  0.52009185    -0.09350
C310        C  0.75117436  0.49746169  0.49110785     0.06840
C311        C  0.76363606  0.47663275  0.46138935    -0.03120
C312        C  0.74143845  0.43583356  0.45997312    -0.07570
C313        C  0.70702462  0.41507925  0.48870627     0.05960
C314        C  0.69526344  0.43624095  0.51967260    -0.02600
Br315      Br  0.65177407  0.41146605  0.56525486    -0.02290
H316        H  0.70797399  0.49313561  0.54387367     0.09870
H317        H  0.75108641  0.42025841  0.43615264     0.07890
Br318      Br  0.81104444  0.50285455  0.42271839    -0.02720
C319        C  0.33611312  0.21912696  0.56459949    -0.09350
C320        C  0.37308694  0.22302986  0.57459334     0.06840
C321        C  0.39003236  0.23673396  0.62203741    -0.03120
C322        C  0.37187935  0.24928293  0.65595451    -0.07570
C323        C  0.33569752  0.24636138  0.64521826     0.05960
C324        C  0.31699782  0.22974834  0.59986157    -0.02600
Br325      Br  0.26631681  0.22244473  0.58338466    -0.02290
H326        H  0.32219591  0.20839152  0.52884330     0.09870
H327        H  0.38574206  0.26066598  0.69163229     0.07890
Br328      Br  0.43584378  0.23617821  0.64537171    -0.02720
C329        C  0.33626184  0.13457604  0.40625104    -0.09350
C330        C  0.36787393  0.13737511  0.43372681     0.06840
C331        C  0.37913782  0.10916773  0.42677026    -0.03120
C332        C  0.36041802  0.08030534  0.39076386    -0.07570
C333        C  0.33000148  0.07843378  0.36133656     0.05960
C334        C  0.31723390  0.10545598  0.37026735    -0.02600
Br335      Br  0.27629509  0.10645817  0.33266975    -0.02290
H336        H  0.32736055  0.15612610  0.41142589     0.09870
H337        H  0.36997436  0.05925446  0.38561496     0.07890
Br338      Br  0.41924563  0.10799155  0.46615871    -0.02720
C339        C  0.55948247  0.26245511  0.51696223    -0.09350
C340        C  0.57879826  0.28895142  0.47798406     0.06840
C341        C  0.55626929  0.29484678  0.44188763    -0.03120
C342        C  0.51516407  0.27513689  0.44621760    -0.07570
C343        C  0.49616762  0.24940563  0.48596639     0.05960
C344        C  0.51857434  0.24250806  0.52088624    -0.02600
Br345      Br  0.49454888  0.20458694  0.57310358    -0.02290
H346        H  0.57636719  0.25732609  0.54467710     0.09870
H347        H  0.49794671  0.27960953  0.41833671     0.07890
Br348      Br  0.57990597  0.32741936  0.38461611    -0.02720
C349        C  0.65812129  0.88278701  0.56381474    -0.09350
C350        C  0.62264382  0.84815848  0.57490067     0.06840
C351        C  0.60650198  0.84352478  0.62318962    -0.03120
C352        C  0.62378142  0.87439201  0.65709288    -0.07570
C353        C  0.65841246  0.90919937  0.64520637     0.05960
C354        C  0.67645541  0.91275093  0.59883139    -0.02600
Br355      Br  0.72500096  0.95856682  0.58058064    -0.02290
H356        H  0.67132481  0.88704389  0.52729635     0.09870
H357        H  0.61055043  0.87089335  0.69350447     0.07890
Br358      Br  0.56317445  0.79509459  0.64709408    -0.02720
C359        C  0.63577365  0.72028291  0.39063630    -0.09350
C360        C  0.66678570  0.74792290  0.36087301     0.06840
C361        C  0.68025213  0.78812235  0.36826508    -0.03120
C362        C  0.66133095  0.79942984  0.40301796    -0.07570
C363        C  0.62913036  0.77144511  0.43065658     0.05960
C364        C  0.61713466  0.73163448  0.42527306    -0.02600
Br365      Br  0.57590578  0.69143282  0.46497065    -0.02290
H366        H  0.62559375  0.68942137  0.38675329     0.09870
H367        H  0.67085305  0.83012681  0.40717864     0.07890
Br368      Br  0.72221206  0.82910402  0.33037033    -0.02720
C369        C  0.43406198  0.74423157  0.49271566    -0.09350
C370        C  0.41586871  0.70485562  0.47724479     0.06840
C371        C  0.44063364  0.69049464  0.46179273    -0.03120
C372        C  0.48139725  0.71372664  0.46673675    -0.07570
C373        C  0.49946374  0.75298590  0.48195983     0.05960
C374        C  0.47502054  0.76863091  0.49267058    -0.02600
Br375      Br  0.49472484  0.82350811  0.50220341    -0.02290
H376        H  0.41652300  0.75675722  0.50451542     0.09870
H377        H  0.49909029  0.70074284  0.45767254     0.07890
Br378      Br  0.42269205  0.64160472  0.42837438    -0.02720
C379        C  0.20011308  0.85340360  0.40364153    -0.09350
C380        C  0.22970089  0.85130057  0.43013426     0.06840
C381        C  0.26932402  0.88000931  0.42188039    -0.03120
C382        C  0.27875300  0.90882066  0.38589685    -0.07570
C383        C  0.24936534  0.91025539  0.35784385     0.05960
C384        C  0.20948069  0.88250184  0.36779215    -0.02600
Br385      Br  0.16634470  0.88069676  0.33213106    -0.02390
H386        H  0.16952361  0.83147672  0.40974945     0.09870
H387        H  0.30947654  0.93040926  0.37999647     0.07890
Br388      Br  0.31179197  0.88243230  0.45991713    -0.02720
C389        C  0.12383883  0.74393560  0.65585598    -0.09350
C390        C  0.08842374  0.74210999  0.64328250     0.06840
C391        C  0.08398930  0.75405094  0.59563639    -0.03120
C392        C  0.11414010  0.76564228  0.56051126    -0.07570
C393        C  0.14936223  0.76650717  0.57250270     0.05960
C394        C  0.15455174  0.75683097  0.62144795    -0.02600
Br395      Br  0.20352494  0.76306615  0.64482870    -0.02290
H396        H  0.12782798  0.73582663  0.69299303     0.09870
H397        H  0.10963717  0.77312875  0.52328951     0.07890
Br398      Br  0.03655057  0.75282969  0.57589613    -0.02720
C399        C  0.30058920  0.73202675  0.50679243    -0.09350
C400        C  0.28570286  0.69830961  0.47719324     0.06840
C401        C  0.25022823  0.68572977  0.45085555    -0.03120
C402        C  0.23027332  0.70653565  0.45523633    -0.07570
C403        C  0.24536645  0.74000984  0.48499774     0.05960
C404        C  0.28090122  0.75291294  0.51058731    -0.02600
Br405      Br  0.30356508  0.79891640  0.55127904    -0.02290
H406        H  0.32758625  0.74202396  0.52757812     0.09870
H407        H  0.20316769  0.69689885  0.43485587     0.07890
Br408      Br  0.22895114  0.64218469  0.40599536    -0.02720
C409        C  0.85462625  0.64395433  0.89537083    -0.09350
C410        C  0.85784908  0.62116634  0.93300670     0.06840
C411        C  0.89051524  0.61564962  0.93318506    -0.03120
C412        C  0.91862624  0.63185957  0.89532327    -0.07570
C413        C  0.91524748  0.65422885  0.85719309     0.05960
C414        C  0.88289867  0.66038579  0.85751260    -0.02600
Br415      Br  0.87390034  0.68795929  0.80517023    -0.02290
H416        H  0.82933765  0.64793946  0.89457600     0.09870
H417        H  0.94354137  0.62727359  0.89597857     0.07890
Br418      Br  0.89882588  0.58739939  0.98527908    -0.02720
C419        C  0.73453670  0.61632327  0.07161776    -0.09350
C420        C  0.77403426  0.62588768  0.07105983     0.06840
C421        C  0.80061424  0.65418024  0.10466415    -0.03120
C422        C  0.78709355  0.67145751  0.13883386    -0.07570
C423        C  0.74715301  0.66062589  0.14074577     0.05960
C424        C  0.72095121  0.63330016  0.10582843    -0.02600
Br425      Br  0.66652308  0.61858231  0.10140908    -0.02290
H426        H  0.71394349  0.59507103  0.04547170     0.09870
H427        H  0.80763040  0.69228001  0.16538379     0.07890
Br428      Br  0.85475523  0.66779838  0.10855475    -0.02720
C429        C  0.73857627  0.43588440  0.04122317    -0.09350
C430        C  0.70726110  0.41570685  0.00770523     0.06840
C431        C  0.69831057  0.43749969  0.97384541    -0.03120
C432        C  0.72010954  0.47835569  0.97463225    -0.07570
C433        C  0.75123430  0.49815287  0.00804857     0.05960
C434        C  0.76064083  0.47674447  0.04133404    -0.02600
Br435      Br  0.80415647  0.50224360  0.08632299    -0.02290
H436        H  0.74606684  0.41979130  0.06728982     0.09870
H437        H  0.71322081  0.49482570  0.94839701     0.07890
Br438      Br  0.65907686  0.41367014  0.92287864    -0.02720
C439        C  0.91564712  0.23592935  0.09573780    -0.09350
C440        C  0.90916610  0.24364047  0.14454262     0.06840
C441        C  0.87232127  0.23862173  0.15766275    -0.03120
C442        C  0.84269809  0.22645025  0.12194541    -0.07570
C443        C  0.84932564  0.22005400  0.07233984     0.05960
C444        C  0.88640432  0.22484845  0.05939993    -0.02600
Br445      Br  0.90069858  0.22091675  0.99226107    -0.02290
H446        H  0.94419123  0.24029440  0.08531971     0.09870
H447        H  0.81443814  0.22259032  0.13287916     0.07890
Br448      Br  0.86111011  0.24797043  0.22407125    -0.02720
C449        C  0.74897857  0.10319699  0.94190363    -0.09350
C450        C  0.76632927  0.14241529  0.92692725     0.06840
C451        C  0.77175089  0.15164226  0.87577438    -0.03120
C452        C  0.75882842  0.12173556  0.84057807    -0.07570
C453        C  0.74074592  0.08258526  0.85560250     0.05960
C454        C  0.73614908  0.07331045  0.90659733    -0.02600
Br455      Br  0.71194849  0.02025479  0.92940798    -0.02290
H456        H  0.74471869  0.09578684  0.98109720     0.09870
H457        H  0.76286655  0.12903805  0.80133481     0.07890
Br458      Br  0.79786985  0.20465236  0.85221418    -0.02720
C459        C  0.75872014  0.27774683  0.96775869    -0.09350
C460        C  0.74838239  0.24717579  0.00161348     0.06840
C461        C  0.71787394  0.23761556  0.03592135    -0.03120
C462        C  0.69853086  0.25903657  0.03652640    -0.07570
C463        C  0.70884810  0.28994240  0.00287442     0.05960
C464        C  0.73916209  0.29903106  0.96788770    -0.02600
Br465      Br  0.75334331  0.33802408  0.91704792    -0.02290
H466        H  0.78180361  0.28474559  0.94072765     0.09870
H467        H  0.67523566  0.25146095  0.06342396     0.07890
Br468      Br  0.70091524  0.19470853  0.08145813    -0.02720
C469        C  0.91177751  0.27477240  0.39047557    -0.09350
C470        C  0.91119769  0.24660549  0.35825993     0.06840
C471        C  0.88114664  0.20717196  0.36392865    -0.03120
C472        C  0.85194997  0.19707976  0.40020884    -0.07570
C473        C  0.85201809  0.22559001  0.43122546     0.05960
C474        C  0.88287439  0.26463436  0.42684174    -0.02600
Br475      Br  0.88809017  0.30516737  0.47076191    -0.02290
H476        H  0.93504711  0.30502887  0.38754188     0.09870
H477        H  0.82834335  0.16697676  0.40318188     0.07890
Br478      Br  0.87639649  0.16618121  0.32134225    -0.02720
C479        C  0.73503687  0.10420300  0.55853004    -0.09350
C480        C  0.76561463  0.14191655  0.56991330     0.06840
C481        C  0.78418532  0.14922651  0.61654933    -0.03120
C482        C  0.77211655  0.11878241  0.65106647    -0.07570
C483        C  0.74098690  0.08119528  0.64006284     0.05960
C484        C  0.72245050  0.07393636  0.59334417    -0.02600
Br485      Br  0.68029356  0.02310133  0.57519679    -0.02290
H486        H  0.72060485  0.09845281  0.52268950     0.09870
H487        H  0.78611963  0.12476284  0.68721762     0.07890
Br488      Br  0.82468952  0.20070522  0.63528921    -0.02720
C489        C  0.72782979  0.24758197  0.45009820    -0.09350
C490        C  0.74422185  0.24525647  0.49544933     0.06840
C491        C  0.74088046  0.26474985  0.53743530    -0.03120
C492        C  0.72108410  0.28569039  0.53351507    -0.07570
C493        C  0.70444470  0.28758688  0.48828163     0.05960
C494        C  0.70805235  0.26849353  0.44629048    -0.02600
Br495      Br  0.68791250  0.27161961  0.38255542    -0.02290
H496        H  0.73051907  0.23311915  0.41744372     0.09870
H497        H  0.71874177  0.30067076  0.56584316     0.07890
Br498      Br  0.76478755  0.26587520  0.60009273    -0.02720
C499        C  0.11304558  0.33502734  0.06319644    -0.09350
C500        C  0.14801131  0.36918520  0.07683408     0.06840
C501        C  0.15202846  0.38270590  0.12635596    -0.03120
C502        C  0.12050805  0.36401709  0.15950096    -0.07570
C503        C  0.08537254  0.33075178  0.14529616     0.05960
C504        C  0.08206107  0.31553136  0.09720039    -0.02600
Br505      Br  0.03508469  0.26964419  0.07554155    -0.02290
H506        H  0.10937675  0.32395298  0.02560720     0.09870
H507        H  0.12362894  0.37522070  0.19698492     0.07890
Br508      Br  0.20040068  0.42472751  0.15246595    -0.02720
C509        C  0.20459245  0.34458645  0.90164504    -0.09350
C510        C  0.23253144  0.37050722  0.93569060     0.06840
C511        C  0.27148922  0.37804445  0.93290956    -0.03120
C512        C  0.28216890  0.36075509  0.89546819    -0.07570
C513        C  0.25452099  0.33552970  0.86052987     0.05960
C514        C  0.21521903  0.32720080  0.86412424    -0.02600
Br515      Br  0.17554836  0.29527128  0.81660356    -0.02290
H516        H  0.17464518  0.33895879  0.90316502     0.09870
H517        H  0.31230800  0.36695815  0.89379862     0.07890
Br518      Br  0.31091046  0.41076790  0.98019487    -0.02720
C519        C  0.23352465  0.51500585  0.97306758    -0.09350
C520        C  0.24856674  0.49534597  0.00035548     0.06840
C521        C  0.28345027  0.51690301  0.02770586    -0.03120
C522        C  0.30254474  0.55768494  0.02803663    -0.07570
C523        C  0.28752383  0.57767026  0.00105467     0.05960
C524        C  0.25283828  0.55589307  0.97281919    -0.02600
Br525      Br  0.23186053  0.58015681  0.93070806    -0.02290
H526        H  0.20689781  0.49846072  0.95145721     0.09870
H527        H  0.32910497  0.57388589  0.04987393     0.07890
Br528      Br  0.30570321  0.49173523  0.06562606    -0.02720
C529        C  0.34532511  0.23545401  0.94296829    -0.09350
C530        C  0.37243742  0.22414985  0.92840255     0.06840
C531        C  0.38072347  0.22396508  0.87730544    -0.03120
C532        C  0.36327916  0.23652582  0.84222310    -0.07570
C533        C  0.33699862  0.24860282  0.85707032     0.05960
C534        C  0.32760071  0.24761431  0.90767303    -0.02600
Br535      Br  0.29224795  0.26443235  0.93014697    -0.02290
H536        H  0.33874379  0.23584248  0.98201523     0.09870
H537        H  0.37021110  0.23684303  0.80314473     0.07890
Br538      Br  0.41422511  0.20536039  0.85303520    -0.02720
C539        C  0.35934582  0.12086873  0.16269967    -0.09350
C540        C  0.32917175  0.08432453  0.14688744     0.06840
C541        C  0.31725061  0.07901731  0.09689087    -0.03120
C542        C  0.33706400  0.10976587  0.06288818    -0.07570
C543        C  0.36841872  0.14622573  0.07824576     0.05960
C544        C  0.37843902  0.15192294  0.12925825    -0.02600
Br545      Br  0.41629759  0.20163790  0.15651281    -0.02290
H546        H  0.36809555  0.12526294  0.20145012     0.09870
H547        H  0.32872221  0.10475286  0.02405078     0.07890
Br548      Br  0.27583276  0.02967073  0.07310227    -0.02720
C549        C  0.51781324  0.23950873  0.96832343    -0.09350
C550        C  0.49735841  0.24692419  0.00530796     0.06840
C551        C  0.51854540  0.27539718  0.04162168    -0.03120
C552        C  0.55966498  0.29517257  0.04143070    -0.07570
C553        C  0.58037814  0.28750315  0.00487114     0.05960
C554        C  0.55899469  0.25964189  0.96760485    -0.02600
Br555      Br  0.58411512  0.24987406  0.91276145    -0.02290
H556        H  0.50162855  0.21827139  0.93956418     0.09870
H557        H  0.57556756  0.31683434  0.06985026     0.07890
Br558      Br  0.49266920  0.28988851  0.09034354    -0.02720
C559        C  0.13809234  0.33727437  0.40467865    -0.09350
C560        C  0.13896796  0.36676838  0.43451869     0.06840
C561        C  0.10940719  0.37655588  0.42830601    -0.03120
C562        C  0.08118235  0.35856327  0.39113223    -0.07570
C563        C  0.08095672  0.33004020  0.35993939     0.05960
C564        C  0.10941123  0.31879457  0.36771683    -0.02600
Br565      Br  0.11257805  0.28048519  0.32750701    -0.02290
H566        H  0.16056558  0.32937322  0.40915678     0.09870
H567        H  0.05898994  0.36686743  0.38684535     0.07890
Br568      Br  0.10479421  0.41294464  0.47089164    -0.02720
C569        C  0.22156479  0.34276428  0.65835722    -0.09350
C570        C  0.25028592  0.33356331  0.64444767     0.06840
C571        C  0.26493913  0.34098443  0.59546893    -0.03120
C572        C  0.25081268  0.35749194  0.56114300    -0.07570
C573        C  0.22277375  0.36751339  0.57534556     0.05960
C574        C  0.20817951  0.36020469  0.62433440    -0.02600
Br575      Br  0.17123113  0.37500983  0.64658285    -0.02290
H576        H  0.21048652  0.33752192  0.69617323     0.09870
H577        H  0.26244895  0.36346028  0.52359616     0.07890
Br578      Br  0.30426206  0.32920770  0.57395089    -0.02720
C579        C  0.27115490  0.51123538  0.46098994    -0.09350
C580        C  0.24671078  0.49281767  0.50197185     0.06840
C581        C  0.24351075  0.51568811  0.53967505    -0.03120
C582        C  0.26522451  0.55653343  0.53625607    -0.07570
C583        C  0.29005582  0.57501705  0.49540844     0.05960
C584        C  0.29249747  0.55194697  0.45725607    -0.02600
Br585      Br  0.32150627  0.57424041  0.39709000    -0.02290
H586        H  0.27309407  0.49379653  0.43134324     0.09870
H587        H  0.26227511  0.57392874  0.56511099     0.07890
Br588      Br  0.20792904  0.49235266  0.59457576    -0.02720
loop_ 
_geom_bond_atom_site_label_1 
_geom_bond_atom_site_label_2 
_geom_bond_distance 
_geom_bond_site_symmetry_2 
_ccdc_geom_bond_type 
C1            C2   1.400       .  A
C1            C6   1.404       .  A
C1          C573   1.471       .  S
C2            C3   1.399       .  A
C2            H7   1.084       .  S
C3            C4   1.401       .  A
C3          C580   1.474       .  S
C4            C5   1.405       .  A
C4            H8   1.084       .  S
C5            C6   1.406       .  A
C5          C560   1.484       .  S
C6            H9   1.083       .  S
C10          C11   1.403       .  A
C10          C15   1.406   1_556  A
C10         C530   1.481       .  S
C11          C12   1.398   1_556  A
C11          H16   1.084       .  S
C12          C13   1.400       .  A
C12         C550   1.474       .  S
C13          C14   1.407       .  A
C13          H17   1.084       .  S
C14          C15   1.407       .  A
C14         C543   1.488       .  S
C15          H18   1.084       .  S
C19          C20   1.403       .  A
C19          C24   1.406   1_556  A
C19         C510   1.478       .  S
C20          C21   1.398   1_556  A
C20          H25   1.084       .  S
C21          C22   1.398       .  A
C21         C520   1.472       .  S
C22          C23   1.406       .  A
C22          H26   1.083       .  S
C23          C24   1.408       .  A
C23         C500   1.489       .  S
C24          H27   1.083       .  S
C28          C29   1.402       .  A
C28          C33   1.402       .  A
C28         C480   1.472       .  S
C29          C30   1.403       .  A
C29          H34   1.084       .  S
C30          C31   1.403       .  A
C30         C490   1.481       .  S
C31          C32   1.404       .  A
C31          H35   1.084       .  S
C32          C33   1.404       .  A
C32         C473   1.482       .  S
C33          H36   1.084       .  S
C37          C38   1.402       .  A
C37          C42   1.405   1_556  A
C37         C450   1.478       .  S
C38          C39   1.398   1_556  A
C38          H43   1.084       .  S
C39          C40   1.399       .  A
C39         C460   1.472       .  S
C40          C41   1.407       .  A
C40          H44   1.084       .  S
C41          C42   1.408       .  A
C41         C443   1.489       .  S
C42          H45   1.083       .  S
C46          C47   1.403       .  A
C46          C51   1.404       .  A
C46         C553   1.484       .  S
C47          C48   1.404       .  A
C47          H52   1.083       .  S
C48          C49   1.404       .  A
C48         C463   1.485       .  S
C49          C50   1.405       .  A
C49          H53   1.083       .  S
C50          C51   1.404       .  A
C50         C430   1.487       .  S
C51          H54   1.083       .  S
C55          C56   1.405       .  A
C55          C60   1.407       .  A
C55         C420   1.482       .  S
C56          C57   1.398       .  A
C56          H61   1.084       .  S
C57          C58   1.398   1_554  A
C57         C433   1.472       .  S
C58          C59   1.403       .  A
C58          H62   1.084       .  S
C59          C60   1.406   1_556  A
C59         C410   1.479       .  S
C60          H63   1.083   1_554  S
O64         Cu72   2.000   1_455  S
O64          C74   1.276       .  A
O65         Cu72   1.993       .  S
O65          C75   1.277       .  A
O66         Cu72   1.996   1_455  S
O66          C76   1.277       .  A
O67         Cu72   2.003       .  S
O67          C77   1.277       .  A
O68         Cu73   2.017       .  S
O68          C77   1.278       .  A
O69         Cu73   2.022   1_455  S
O69          C76   1.279       .  A
O70         Cu73   2.022       .  S
O70          C75   1.279       .  A
O71         Cu73   2.019   1_455  S
O71          C74   1.278       .  A
Cu72        Cu73   2.373       .  S
C74         C503   1.471       .  S
C75         C470   1.482       .  S
C76         C563   1.484       .  S
C77         C440   1.469       .  S
C78          C79   1.406       .  A
C78          C83   1.407       .  A
C78         C393   1.485       .  S
C79          C80   1.399       .  A
C79          H84   1.083       .  S
C80          C81   1.397       .  A
C80         C403   1.470       .  S
C81          C82   1.402       .  A
C81          H85   1.084       .  S
C82          C83   1.405       .  A
C82         C380   1.479       .  S
C83          H86   1.084       .  S
C87          C88   1.401       .  A
C87          C92   1.405       .  A
C87         C400   1.484       .  S
C88          C89   1.399       .  A
C88          H93   1.083       .  S
C89          C90   1.404       .  A
C89         C583   1.479       .  S
C90          C91   1.411       .  A
C90          H94   1.080       .  S
C91          C92   1.410       .  A
C91         C370   1.504       .  S
C92          H95   1.082       .  S
C96          C97   1.400       .  A
C96         C101   1.400       .  A
C96         C363   1.478       .  S
C97          C98   1.404       .  A
C97         H102   1.083       .  S
C98          C99   1.407       .  A
C98         C373   1.497       .  S
C99         C100   1.409       .  A
C99         H103   1.078       .  S
C100        C101   1.407       .  A
C100        C350   1.491       .  S
C101        H104   1.084       .  S
C105        C106   1.408       .  A
C105        C110   1.409       .  A
C105        C320   1.492       .  S
C106        C107   1.401       .  A
C106        H111   1.082       .  S
C107        C108   1.395       .  A
C107        C343   1.473       .  S
C108        C109   1.401       .  A
C108        H112   1.084       .  S
C109        C110   1.404       .  A
C109        C330   1.478       .  S
C110        H113   1.084       .  S
C114        C115   1.400       .  A
C114        C119   1.401       .  A
C114        C493   1.475       .  S
C115        C116   1.403       .  A
C115        H120   1.084       .  S
C116        C117   1.403       .  A
C116        C340   1.479       .  S
C117        C118   1.405       .  A
C117        H121   1.083       .  S
C118        C119   1.407       .  A
C118        C313   1.486       .  S
C119        H122   1.084       .  S
C123        C124   1.404       .  A
C123        C128   1.404       .  A
C123        C303   1.478       .  S
C124        C125   1.400       .  A
C124        H129   1.084       .  S
C125        C126   1.399       .  A
C125        C310   1.471       .  S
C126        C127   1.400       .  A
C126        H130   1.084       .  S
C127        C128   1.403       .  A
C127        C290   1.471       .  S
C128        H131   1.084       .  S
C132        C133   1.403       .  A
C132        C137   1.399   1_556  A
C132        C270   1.474       .  S
C133        C134   1.409   1_556  A
C133        H138   1.081       .  S
C134        C135   1.409       .  A
C134        C280   1.500       .  S
C135        C136   1.402       .  A
C135        H139   1.082       .  S
C136        C137   1.397       .  A
C136        C260   1.472       .  S
C137        H140   1.084   1_554  S
C141        C142   1.408       .  A
C141        C146   1.408       .  A
C141        C283   1.500       .  S
C142        C143   1.401       .  A
C142        H147   1.082       .  S
C143        C144   1.401   1_554  A
C143        C523   1.484       .  S
C144        C145   1.407       .  A
C144        H148   1.083       .  S
C145        C146   1.407   1_556  A
C145        C253   1.498       .  S
C146        H149   1.077       .  S
C150        C151   1.408       .  A
C150        C155   1.405       .  A
C150        C243   1.488       .  S
C151        C152   1.406   1_554  A
C151        H156   1.081       .  S
C152        C153   1.405       .  A
C152        C250   1.499       .  S
C153        C154   1.402       .  A
C153        H157   1.083       .  S
C154        C155   1.403   1_556  A
C154        C230   1.480       .  S
C155        H158   1.082       .  S
O159       Cu167   2.010   1_545  S
O159        C169   1.277       .  A
O160       Cu167   2.016       .  S
O160        C170   1.278       .  A
O161       Cu167   2.017   1_545  S
O161        C171   1.278       .  A
O162       Cu167   2.019       .  S
O162        C172   1.279       .  A
O163       Cu168   1.992       .  S
O163        C172   1.275       .  A
O164       Cu168   2.002   1_545  S
O164        C171   1.276       .  A
O165       Cu168   2.001       .  S
O165        C170   1.277       .  A
O166       Cu168   2.009   1_545  S
O166        C169   1.277       .  A
Cu167      Cu168   2.374       .  S
C169        C453   1.467       .  S
C170        C353   1.471       .  S
C171        C483   1.470       .  S
C172        C233   1.482       .  S
O173       Cu181   2.016       .  S
O173        C183   1.277       .  A
O174       Cu181   2.018       .  S
O174        C184   1.279       .  A
O175       Cu181   2.031       .  S
O175        C185   1.281       .  A
O176       Cu181   2.029       .  S
O176        C186   1.280       .  A
O177       Cu182   1.989       .  S
O177        C186   1.275       .  A
O178       Cu182   1.988       .  S
O178        C185   1.274       .  A
O179       Cu182   2.003       .  S
O179        C184   1.277       .  A
O180       Cu182   1.995       .  S
O180        C183   1.278       .  A
Cu181      Cu182   2.368       .  S
C183        C360   1.484       .  S
C184        C423   1.482       .  S
C185        C240   1.487       .  S
C186        C300   1.478       .  S
O187       Cu195   2.021   1_545  S
O187        C197   1.278       .  A
O188       Cu195   2.016       .  S
O188        C198   1.278       .  A
O189       Cu195   2.017   1_545  S
O189        C199   1.278       .  A
O190       Cu195   2.014       .  S
O190        C200   1.278       .  A
O191       Cu196   1.994       .  S
O191        C200   1.276       .  A
O192       Cu196   1.990   1_545  S
O192        C199   1.277       .  A
O193       Cu196   1.994       .  S
O193        C198   1.277       .  A
O194       Cu196   1.995   1_545  S
O194        C197   1.275       .  A
Cu195      Cu196   2.371       .  S
C197        C540   1.467       .  S
C198        C383   1.483       .  S
C199        C333   1.481       .  S
C200        C263   1.476       .  S
O201       Cu209   1.997       .  S
O201        C211   1.276       .  A
O202       Cu209   2.007   1_655  S
O202        C212   1.277       .  A
O203       Cu209   1.998       .  S
O203        C213   1.276       .  A
O204       Cu209   2.006   1_655  S
O204        C214   1.278       .  A
O205       Cu210   2.012       .  S
O205        C214   1.278       .  A
O206       Cu210   2.014   1_455  S
O206        C213   1.278       .  A
O207       Cu210   2.005       .  S
O207        C212   1.277       .  A
O208       Cu210   2.011   1_455  S
O208        C211   1.277       .  A
Cu209      Cu210   2.377   1_455  S
C211        C273   1.463       .  S
C212        C293   1.469       .  S
C213        C390   1.469       .  S
C214        C413   1.478       .  S
O215       Cu223   2.004       .  S
O215        C225   1.278       .  A
O216       Cu223   1.996       .  S
O216        C226   1.276       .  A
O217       Cu223   2.008       .  S
O217        C227   1.277       .  A
O218       Cu223   2.000       .  S
O218        C228   1.276       .  A
O219       Cu224   2.012       .  S
O219        C228   1.277       .  A
O220       Cu224   2.008       .  S
O220        C227   1.277       .  A
O221       Cu224   2.021       .  S
O221        C226   1.279       .  A
O222       Cu224   2.011       .  S
O222        C225   1.278       .  A
Cu223      Cu224   2.377       .  S
C225        C513   1.479       .  S
C226        C323   1.472       .  S
C227        C570   1.467       .  S
C228        C533   1.465       .  S
C229        C230   1.402       .  A
C229        C234   1.393       .  A
C229        H236   1.084       .  S
C230        C231   1.408       .  A
C231        C232   1.402       .  A
C231       Br238   1.918       .  S
C232        C233   1.408       .  A
C232        H237   1.083       .  S
C233        C234   1.414       .  A
C234       Br235   1.924       .  S
C239        C240   1.409       .  A
C239        C244   1.405       .  A
C239        H246   1.084       .  S
C240        C241   1.416       .  A
C241        C242   1.393       .  A
C241       Br248   1.923       .  S
C242        C243   1.402       .  A
C242        H247   1.083       .  S
C243        C244   1.412       .  A
C244       Br245   1.919       .  S
C249        C250   1.410       .  A
C249        C254   1.399       .  A
C249        H256   1.082       .  S
C250        C251   1.416   1_556  A
C251        C252   1.398       .  A
C251       Br258   1.923       .  S
C252        C253   1.408   1_554  A
C252        H257   1.083       .  S
C253        C254   1.415       .  A
C254       Br255   1.923       .  S
C259        C260   1.400       .  A
C259        C264   1.394       .  A
C259        H266   1.084       .  S
C260        C261   1.406       .  A
C261        C262   1.401       .  A
C261       Br268   1.918       .  S
C262        C263   1.406       .  A
C262        H267   1.084       .  S
C263        C264   1.412       .  A
C264       Br265   1.922       .  S
C269        C270   1.404       .  A
C269        C274   1.397       .  A
C269        H276   1.084       .  S
C270        C271   1.409       .  A
C271        C272   1.399       .  A
C271       Br278   1.918       .  S
C272        C273   1.402       .  A
C272        H277   1.084       .  S
C273        C274   1.404       .  A
C274       Br275   1.919       .  S
C279        C280   1.410       .  A
C279        C284   1.400       .  A
C279        H286   1.082       .  S
C280        C281   1.416   1_554  A
C281        C282   1.397       .  A
C281       Br288   1.925       .  S
C282        C283   1.408   1_556  A
C282        H287   1.082       .  S
C283        C284   1.415       .  A
C284       Br285   1.923       .  S
C289        C290   1.401       .  A
C289        C294   1.398       .  A
C289        H296   1.084       .  S
C290        C291   1.407       .  A
C291        C292   1.398       .  A
C291       Br298   1.918       .  S
C292        C293   1.403       .  A
C292        H297   1.084       .  S
C293        C294   1.409       .  A
C294       Br295   1.919       .  S
C299        C300   1.404       .  A
C299        C304   1.402       .  A
C299        H306   1.083       .  S
C300        C301   1.413       .  A
C301        C302   1.396       .  A
C301       Br308   1.922       .  S
C302        C303   1.400       .  A
C302        H307   1.084       .  S
C303        C304   1.410       .  A
C304       Br305   1.919       .  S
C309        C310   1.400       .  A
C309        C314   1.399       .  A
C309        H316   1.084       .  S
C310        C311   1.404       .  A
C311        C312   1.398       .  A
C311       Br318   1.918       .  S
C312        C313   1.407       .  A
C312        H317   1.083       .  S
C313        C314   1.416       .  A
C314       Br315   1.922       .  S
C319        C320   1.410       .  A
C319        C324   1.401       .  A
C319        H326   1.083       .  S
C320        C321   1.416       .  A
C321        C322   1.396       .  A
C321       Br328   1.920       .  S
C322        C323   1.400       .  A
C322        H327   1.084       .  S
C323        C324   1.406       .  A
C324       Br325   1.918       .  S
C329        C330   1.403       .  A
C329        C334   1.401       .  A
C329        H336   1.083       .  S
C330        C331   1.408       .  A
C331        C332   1.394       .  A
C331       Br338   1.922       .  S
C332        C333   1.406       .  A
C332        H337   1.083       .  S
C333        C334   1.415       .  A
C334       Br335   1.920       .  S
C339        C340   1.403       .  A
C339        C344   1.394       .  A
C339        H346   1.084       .  S
C340        C341   1.412       .  A
C341        C342   1.402       .  A
C341       Br348   1.919       .  S
C342        C343   1.402       .  A
C342        H347   1.084       .  S
C343        C344   1.406       .  A
C344       Br345   1.918       .  S
C349        C350   1.409       .  A
C349        C354   1.399       .  A
C349        H356   1.083       .  S
C350        C351   1.416       .  A
C351        C352   1.398       .  A
C351       Br358   1.922       .  S
C352        C353   1.401       .  A
C352        H357   1.084       .  S
C353        C354   1.406       .  A
C354       Br355   1.919       .  S
C359        C360   1.406       .  A
C359        C364   1.394       .  A
C359        H366   1.083       .  S
C360        C361   1.417       .  A
C361        C362   1.402       .  A
C361       Br368   1.920       .  S
C362        C363   1.402       .  A
C362        H367   1.083       .  S
C363        C364   1.408       .  A
C364       Br365   1.922       .  S
C369        C370   1.413       .  A
C369        C374   1.400       .  A
C369        H376   1.082       .  S
C370        C371   1.417       .  A
C371        C372   1.396       .  A
C371       Br378   1.920       .  S
C372        C373   1.407       .  A
C372        H377   1.082       .  S
C373        C374   1.413       .  A
C374       Br375   1.923       .  S
C379        C380   1.403       .  A
C379        C384   1.400       .  A
C379        H386   1.084       .  S
C380        C381   1.408       .  A
C381        C382   1.395       .  A
C381       Br388   1.921       .  S
C382        C383   1.406       .  A
C382        H387   1.084       .  S
C383        C384   1.415       .  A
C384       Br385   1.920       .  S
C389        C390   1.401       .  A
C389        C394   1.397       .  A
C389        H396   1.084       .  S
C390        C391   1.406       .  A
C391        C392   1.399       .  A
C391       Br398   1.919       .  S
C392        C393   1.407       .  A
C392        H397   1.083       .  S
C393        C394   1.414       .  A
C394       Br395   1.922       .  S
C399        C400   1.406       .  A
C399        C404   1.394       .  A
C399        H406   1.084       .  S
C400        C401   1.414       .  A
C401        C402   1.402       .  A
C401       Br408   1.920       .  S
C402        C403   1.401       .  A
C402        H407   1.084       .  S
C403        C404   1.404       .  A
C404       Br405   1.919       .  S
C409        C410   1.403       .  A
C409        C414   1.401       .  A
C409        H416   1.084       .  S
C410        C411   1.409       .  A
C411        C412   1.397       .  A
C411       Br418   1.920       .  S
C412        C413   1.404       .  A
C412        H417   1.084       .  S
C413        C414   1.412       .  A
C414       Br415   1.920       .  S
C419        C420   1.402       .  A
C419        C424   1.396       .  A
C419        H426   1.084       .  S
C420        C421   1.411       .  A
C421        C422   1.402       .  A
C421       Br428   1.919       .  S
C422        C423   1.406       .  A
C422        H427   1.083       .  S
C423        C424   1.413       .  A
C424       Br425   1.919       .  S
C429        C430   1.407       .  A
C429        C434   1.399       .  A
C429        H436   1.083       .  S
C430        C431   1.416   1_554  A
C431        C432   1.399       .  A
C431       Br438   1.921       .  S
C432        C433   1.399   1_556  A
C432        H437   1.084       .  S
C433        C434   1.405       .  A
C434       Br435   1.918       .  S
C439        C440   1.400       .  A
C439        C444   1.402       .  A
C439        H446   1.083       .  S
C440        C441   1.405       .  A
C441        C442   1.397       .  A
C441       Br448   1.920       .  S
C442        C443   1.407       .  A
C442        H447   1.084       .  S
C443        C444   1.416       .  A
C444       Br445   1.921   1_554  S
C449        C450   1.404       .  A
C449        C454   1.400       .  A
C449        H456   1.084       .  S
C450        C451   1.411       .  A
C451        C452   1.398       .  A
C451       Br458   1.920       .  S
C452        C453   1.400       .  A
C452        H457   1.084       .  S
C453        C454   1.407       .  A
C454       Br455   1.918       .  S
C459        C460   1.400   1_556  A
C459        C464   1.400       .  A
C459        H466   1.084       .  S
C460        C461   1.405       .  A
C461        C462   1.397       .  A
C461       Br468   1.919       .  S
C462        C463   1.406       .  A
C462        H467   1.084       .  S
C463        C464   1.415   1_554  A
C464       Br465   1.921       .  S
C469        C470   1.405       .  A
C469        C474   1.396       .  A
C469        H476   1.083       .  S
C470        C471   1.413       .  A
C471        C472   1.402       .  A
C471       Br478   1.920       .  S
C472        C473   1.405       .  A
C472        H477   1.083       .  S
C473        C474   1.409       .  A
C474       Br475   1.921       .  S
C479        C480   1.401       .  A
C479        C484   1.399       .  A
C479        H486   1.084       .  S
C480        C481   1.407       .  A
C481        C482   1.400       .  A
C481       Br488   1.918       .  S
C482        C483   1.403       .  A
C482        H487   1.084       .  S
C483        C484   1.409       .  A
C484       Br485   1.919       .  S
C489        C490   1.405       .  A
C489        C494   1.398       .  A
C489        H496   1.083       .  S
C490        C491   1.412       .  A
C491        C492   1.400       .  A
C491       Br498   1.920       .  S
C492        C493   1.402       .  A
C492        H497   1.083       .  S
C493        C494   1.407       .  A
C494       Br495   1.919       .  S
C499        C500   1.408       .  A
C499        C504   1.402       .  A
C499        H506   1.083       .  S
C500        C501   1.415       .  A
C501        C502   1.397       .  A
C501       Br508   1.923       .  S
C502        C503   1.400       .  A
C502        H507   1.084       .  S
C503        C504   1.406       .  A
C504       Br505   1.917       .  S
C509        C510   1.403       .  A
C509        C514   1.400       .  A
C509        H516   1.084       .  S
C510        C511   1.408       .  A
C511        C512   1.397       .  A
C511       Br518   1.919       .  S
C512        C513   1.405       .  A
C512        H517   1.084       .  S
C513        C514   1.413       .  A
C514       Br515   1.920       .  S
C519        C520   1.400   1_556  A
C519        C524   1.400       .  A
C519        H526   1.084       .  S
C520        C521   1.406       .  A
C521        C522   1.397       .  A
C521       Br528   1.919       .  S
C522        C523   1.405       .  A
C522        H527   1.084       .  S
C523        C524   1.414   1_554  A
C524       Br525   1.920       .  S
C529        C530   1.406       .  A
C529        C534   1.399       .  A
C529        H536   1.083       .  S
C530        C531   1.413       .  A
C531        C532   1.398       .  A
C531       Br538   1.921       .  S
C532        C533   1.399       .  A
C532        H537   1.084       .  S
C533        C534   1.405       .  A
C534       Br535   1.919       .  S
C539        C540   1.398       .  A
C539        C544   1.396       .  A
C539        H546   1.084       .  S
C540        C541   1.405       .  A
C541        C542   1.402       .  A
C541       Br548   1.918       .  S
C542        C543   1.409       .  A
C542        H547   1.083       .  S
C543        C544   1.414       .  A
C544       Br545   1.919       .  S
C549        C550   1.401   1_556  A
C549        C554   1.400       .  A
C549        H556   1.084       .  S
C550        C551   1.406       .  A
C551        C552   1.398       .  A
C551       Br558   1.917       .  S
C552        C553   1.405       .  A
C552        H557   1.083       .  S
C553        C554   1.414   1_554  A
C554       Br555   1.921       .  S
C559        C560   1.405       .  A
C559        C564   1.403       .  A
C559        H566   1.084       .  S
C560        C561   1.410       .  A
C561        C562   1.395       .  A
C561       Br568   1.922       .  S
C562        C563   1.405       .  A
C562        H567   1.084       .  S
C563        C564   1.414       .  A
C564       Br565   1.920       .  S
C569        C570   1.402       .  A
C569        C574   1.399       .  A
C569        H576   1.084       .  S
C570        C571   1.407       .  A
C571        C572   1.398       .  A
C571       Br578   1.918       .  S
C572        C573   1.401       .  A
C572        H577   1.084       .  S
C573        C574   1.407       .  A
C574       Br575   1.918       .  S
C579        C580   1.400       .  A
C579        C584   1.396       .  A
C579        H586   1.084       .  S
C580        C581   1.409       .  A
C581        C582   1.401       .  A
C581       Br588   1.919       .  S
C582        C583   1.404       .  A
C582        H587   1.083       .  S
C583        C584   1.411       .  A
C584       Br585   1.917       .  S
