geometry optimzed in LAMMPS
_audit_creation_date              2020-12-01 
_audit_creation_method            'lammps2cif' 
_symmetry_space_group_name_H-M    'P1' 
_symmetry_Int_Tables_number       1 
_symmetry_cell_setting            triclinic 
loop_ 
_symmetry_equiv_pos_as_xyz 
  x,y,z 
_cell_length_a                    54.04484387 
_cell_length_b                    38.75173452488948 
_cell_length_c                    34.636356813030034 
_cell_angle_alpha                 89.74365085457661 
_cell_angle_beta                  89.97863964295888 
_cell_angle_gamma                 89.19020831960923 
loop_ 
_atom_site_label 
_atom_site_type_symbol 
_atom_site_fract_x 
_atom_site_fract_y 
_atom_site_fract_z 
_atom_site_charge 
O1          O  0.59430155  0.56497377  0.98056645    -0.73700
O2          O  0.59845527  0.50016162  0.07141199    -0.74700
O3          O  0.63301424  0.53361257  0.02396996    -0.63300
O4          O  0.55911280  0.53109722  0.02890009    -0.71700
O5          O  0.55890640  0.48570515  0.99004251    -0.71200
O6          O  0.63334262  0.48941087  0.98351479    -0.62500
O7          O  0.59938118  0.45527264  0.03167277    -0.75000
O8          O  0.59392192  0.52010578  0.94122942    -0.73800
Cu9        Cu  0.59607651  0.53404042  0.02750745     1.04600
Cu10       Cu  0.59623910  0.48609349  0.98513485     1.04300
C11         C  0.59403614  0.55275484  0.94633093     0.92500
C12         C  0.60045330  0.46771122  0.06568554     0.91700
C13         C  0.64491333  0.51180459  0.00327618     0.83800
C14         C  0.54733884  0.50773236  0.01098965     0.90100
O15         O  0.43565715  0.53210315  0.04369568    -0.73700
O16         O  0.50939962  0.52896950  0.03621599    -0.74700
O17         O  0.47066825  0.56203665  0.99414695    -0.63300
O18         O  0.47362849  0.49803634  0.08623816    -0.71700
O19         O  0.47249292  0.45237554  0.04836895    -0.71200
O20         O  0.46778497  0.51638969  0.95630214    -0.62500
O21         O  0.50775569  0.48384765  0.99712393    -0.75000
O22         O  0.43323658  0.48545074  0.00697956    -0.73800
Cu23       Cu  0.47253592  0.53171347  0.04149559     1.04600
Cu24       Cu  0.47035945  0.48286544  0.00085775     1.04300
C25         C  0.42278939  0.50961806  0.02632860     0.92500
C26         C  0.52025006  0.50663323  0.01488931     0.91700
C27         C  0.46817308  0.54916564  0.96048066     0.83800
C28         C  0.47276698  0.46520498  0.08227453     0.90100
C29         C  0.43406159  0.62958395  0.75863338     0.85700
C30         C  0.42915560  0.66860833  0.75864388    -0.54500
C31         C  0.44260154  0.68642815  0.78517774     0.08700
C32         C  0.45914738  0.66297366  0.81093160     0.19600
C33         C  0.46242352  0.62528473  0.75546338    -0.55200
C34         C  0.47559704  0.64343158  0.78208382     0.08800
C35         C  0.42885975  0.61816285  0.80046882    -0.54700
C36         C  0.44249040  0.63451913  0.82790188     0.09300
H37         H  0.41666613  0.68118132  0.73827218     0.13900
H38         H  0.46952636  0.67771370  0.83283362    -0.00400
H39         H  0.47142166  0.60957413  0.73354892     0.14200
H40         H  0.41944252  0.59456135  0.80788097     0.14000
C41         C  0.44771283  0.38713691  0.29410045     0.85700
C42         C  0.44232951  0.34864107  0.28955224    -0.54500
C43         C  0.45596837  0.33226894  0.26169749     0.08700
C44         C  0.47359030  0.35652467  0.23965336     0.19600
C45         C  0.47605999  0.38902393  0.29939240    -0.55200
C46         C  0.48957749  0.37239884  0.27143251     0.08800
C47         C  0.44391379  0.40256835  0.25318686    -0.54700
C48         C  0.45803238  0.38749552  0.22500744     0.09300
H49         H  0.42951579  0.33505547  0.30817412     0.13900
H50         H  0.48437043  0.34383670  0.21628779    -0.00400
H51         H  0.48471480  0.40316177  0.32264284     0.14200
H52         H  0.43397031  0.42641906  0.24715564     0.14000
N53         N  0.29122739  0.49007719  0.50905156    -0.28000
N54         N  0.29033854  0.50560552  0.54291377    -0.35900
C55         C  0.26663040  0.50903364  0.55411190     0.00300
C56         C  0.25177465  0.49453871  0.52617624     0.06300
C57         C  0.26801174  0.48314201  0.49781290    -0.06800
H58         H  0.26070481  0.52175901  0.58033217     0.07000
H59         H  0.26329877  0.47066003  0.47099641     0.08200
Cu60       Cu  0.32125961  0.52133731  0.57247571     0.44200
Cu61       Cu  0.32405403  0.47895408  0.47995351     0.42000
Cu62       Cu  0.38089616  0.50014469  0.52944101     0.43900
N63         N  0.35469307  0.53362680  0.59711608    -0.35400
N64         N  0.37646740  0.52608233  0.58165432    -0.29700
C65         C  0.39430785  0.53836596  0.60470309    -0.05800
C66         C  0.38319351  0.55393336  0.63633665     0.06400
C67         C  0.35805560  0.55072635  0.63031882     0.00200
H68         H  0.41392434  0.53626041  0.59881321     0.07900
H69         H  0.34324215  0.56074217  0.64824678     0.07000
N70         N  0.37993037  0.47576815  0.47590753    -0.36900
N71         N  0.35914249  0.46865924  0.45763559    -0.29000
C72         C  0.36467967  0.45371854  0.42364445    -0.04300
C73         C  0.39019696  0.45144556  0.42009726     0.04300
C74         C  0.39923329  0.46532092  0.45403507     0.02400
H75         H  0.35108651  0.44476557  0.40322300     0.07500
H76         H  0.41846323  0.46799962  0.46202254     0.06400
C77         C  0.43700749  0.89264837  0.75504780     0.85700
C78         C  0.43657839  0.90784298  0.79624639    -0.54500
C79         C  0.45118330  0.89017542  0.82202766     0.08700
C80         C  0.46466558  0.85865090  0.80480813     0.19600
C81         C  0.46477913  0.89172966  0.74522472    -0.55200
C82         C  0.47929981  0.87379106  0.77082366     0.08800
C83         C  0.42982383  0.85486129  0.76053914    -0.54700
C84         C  0.44429107  0.83672930  0.78610187     0.09300
H85         H  0.42786833  0.93207651  0.80424922     0.13900
H86         H  0.47638155  0.84466207  0.82617635    -0.00400
H87         H  0.47240336  0.90526303  0.72049554     0.14200
H88         H  0.41532927  0.84285734  0.74375868     0.14000
C89         C  0.44056908  0.12850909  0.28367967     0.85700
C90         C  0.44165516  0.11184393  0.24316827    -0.54500
C91         C  0.45725807  0.12764885  0.21782465     0.08700
C92         C  0.47016881  0.15923808  0.23489369     0.19600
C93         C  0.46782459  0.12897078  0.29633971    -0.55200
C94         C  0.48327104  0.14493420  0.27110012     0.08800
C95         C  0.43377412  0.16650387  0.27565962    -0.54700
C96         C  0.44948620  0.18295604  0.25086617     0.09300
H97         H  0.43232206  0.08859512  0.23473586     0.13900
H98         H  0.48259294  0.17230733  0.21407941    -0.00400
H99         H  0.47424223  0.11801133  0.32350550     0.14200
H100        H  0.41927443  0.18018743  0.29131630     0.14000
N101        N  0.29263496  0.01726152  0.49644127    -0.28000
N102        N  0.29186613  0.01165637  0.53405085    -0.35900
C103        C  0.26815687  0.01271005  0.54580129     0.00300
C104        C  0.25338698  0.01958769  0.51395437     0.06300
C105        C  0.26951648  0.02199202  0.48313636    -0.06800
H106        H  0.26214511  0.00824964  0.57516050     0.07000
H107        H  0.26482896  0.02721786  0.45329445     0.08200
Cu108      Cu  0.32320876  0.00208479  0.56680650     0.44200
Cu109      Cu  0.32503175  0.02037270  0.46547321     0.42000
Cu110      Cu  0.38257545  0.01100866  0.51835740     0.43900
N111        N  0.35682452  0.98941468  0.59200112    -0.35400
N112        N  0.37842622  0.99191340  0.57431862    -0.29700
C113        C  0.39619604  0.97912471  0.59776782    -0.05800
C114        C  0.38526775  0.96850287  0.63193973     0.06400
C115        C  0.36027507  0.97520838  0.62710895     0.00200
H116        H  0.41557248  0.97699147  0.59020931     0.07900
H117        H  0.34553247  0.96882840  0.64691615     0.07000
N118        N  0.38006540  0.03053439  0.46230018    -0.36900
N119        N  0.35903371  0.03259971  0.44287864    -0.29000
C120        C  0.36310466  0.04728557  0.40832584    -0.04300
C121        C  0.38791030  0.05487792  0.40569774     0.04300
C122        C  0.39812979  0.04420553  0.44051813     0.02400
H123        H  0.34882620  0.05339405  0.38737718     0.07500
H124        H  0.41716534  0.04674841  0.44956913     0.06400
O125        O  0.59833005  0.02746160  0.08488047    -0.73700
O126        O  0.60192042  0.96633031  0.99142486    -0.74700
O127        O  0.63671191  0.00041159  0.03762046    -0.63300
O128        O  0.56272269  0.99309717  0.03836134    -0.71700
O129        O  0.55991256  0.04000251  0.00151620    -0.71200
O130        O  0.63364432  0.04670296  0.99993088    -0.62500
O131        O  0.59839115  0.01272596  0.95441868    -0.75000
O132        O  0.59588853  0.07396835  0.04791983    -0.73800
Cu133      Cu  0.59991902  0.99524827  0.03946919     1.04600
Cu134      Cu  0.59675876  0.04494161  0.99968359     1.04300
C135        C  0.59722582  0.06037128  0.08151704     0.92500
C136        C  0.60116987  0.97998640  0.95783574     0.91700
C137        C  0.64683451  0.02462786  0.01840160     0.83800
C138        C  0.54966558  0.01531565  0.01974550     0.90100
O139        O  0.47311652  0.01881317  0.08326657    -0.73700
O140        O  0.47589535  0.95327595  0.99350061    -0.74700
O141        O  0.51209685  0.98877217  0.03848357    -0.63300
O142        O  0.43808935  0.98286447  0.03847473    -0.71700
O143        O  0.43597953  0.02676196  0.99725838    -0.71200
O144        O  0.50983410  0.03399092  0.99896172    -0.62500
O145        O  0.47477397  0.99800658  0.95310960    -0.75000
O146        O  0.47024463  0.06315926  0.04257625    -0.73800
Cu147      Cu  0.47505101  0.98437277  0.03988425     1.04600
Cu148      Cu  0.47277614  0.03201284  0.99656639     1.04300
C149        C  0.47038788  0.05117933  0.07694676     0.92500
C150        C  0.47471494  0.96549758  0.95921946     0.91700
C151        C  0.52261655  0.01253368  0.01906629     0.83800
C152        C  0.42533916  0.00380131  0.01773401     0.90100
C153        C  0.62841009  0.89429305  0.74843673     0.85700
C154        C  0.63333556  0.85619238  0.75731330    -0.54500
C155        C  0.61950529  0.84298618  0.78679468     0.08700
C156        C  0.60181586  0.87001816  0.80532738     0.19600
C157        C  0.60005330  0.89534165  0.74133283    -0.55200
C158        C  0.58621951  0.88331851  0.77132254     0.08800
C159        C  0.63226938  0.91282916  0.78674586    -0.54700
C160        C  0.61758826  0.90162302  0.81622299     0.09300
H161        H  0.64427178  0.83969698  0.73844836     0.13900
H162        H  0.59049256  0.85966821  0.82937746    -0.00400
H163        H  0.59151556  0.90297683  0.71422734     0.14200
H164        H  0.64467828  0.93444938  0.78949092     0.14000
C165        C  0.63221907  0.13872062  0.28826865     0.85700
C166        C  0.63922596  0.17602177  0.27845974    -0.54500
C167        C  0.62318362  0.19235930  0.25368610     0.08700
C168        C  0.60226644  0.16902535  0.23885735     0.19600
C169        C  0.60507745  0.14080522  0.30147685    -0.55200
C170        C  0.58933702  0.15662858  0.27584742     0.08800
C171        C  0.63145636  0.12159476  0.24821654    -0.54700
C172        C  0.61495499  0.13612263  0.22310213     0.09300
H173        H  0.65488308  0.18916928  0.29082534     0.13900
H174        H  0.58977211  0.18138029  0.21735041    -0.00400
H175        H  0.59876821  0.12954778  0.32845899     0.14200
H176        H  0.64244641  0.09915415  0.24011327     0.14000
N177        N  0.69456100  0.02761018  0.45623343    -0.28000
N178        N  0.71501177  0.04460079  0.44824164    -0.35900
C179        C  0.71123529  0.06468686  0.41709386     0.00300
C180        C  0.68741310  0.05977656  0.40443942     0.06300
C181        C  0.67722785  0.03626154  0.42987056    -0.06800
H182        H  0.72475274  0.08195394  0.40490993     0.07000
H183        H  0.65836700  0.02729170  0.43015236     0.08200
Cu184      Cu  0.74747013  0.04040991  0.47896199     0.44200
Cu185      Cu  0.69061984  0.99633136  0.50487639     0.42000
Cu186      Cu  0.74708378  0.98617525  0.56159318     0.43900
N187        N  0.77903487  0.02772916  0.50929373    -0.35400
N188        N  0.77901049  0.00691886  0.53954639    -0.29700
C189        C  0.80240154  0.00163168  0.55148357    -0.05800
C190        C  0.81783234  0.02038911  0.52772816     0.06400
C191        C  0.80241268  0.03639801  0.50108147     0.00200
H192        H  0.80778238  0.98502600  0.57532355     0.07900
H193        H  0.80781583  0.05208944  0.47667501     0.07000
N194        N  0.71281684  0.96992209  0.57954644    -0.36900
N195        N  0.69226977  0.97272789  0.55901669    -0.29000
C196        C  0.67334490  0.96084270  0.58031878    -0.04300
C197        C  0.68240184  0.95081451  0.61625294     0.04300
C198        C  0.70754745  0.95658266  0.61434122     0.02400
H199        H  0.65436297  0.96022388  0.57051287     0.07500
H200        H  0.72099590  0.95258926  0.63712612     0.06400
C201        C  0.62364054  0.63977513  0.74379913     0.85700
C202        C  0.62703089  0.62273357  0.78361665    -0.54500
C203        C  0.61375402  0.63807783  0.81262801     0.08700
C204        C  0.59816550  0.66946995  0.79901370     0.19600
C205        C  0.59522554  0.63842980  0.73856497    -0.55200
C206        C  0.58189754  0.65454049  0.76692277     0.08800
C207        C  0.62928483  0.67811589  0.74943394    -0.54700
C208        C  0.61569850  0.69392891  0.77770259     0.09300
H209        H  0.63616810  0.59784870  0.78756213     0.13900
H210        H  0.58763792  0.68242929  0.82250362    -0.00400
H211        H  0.58632525  0.62313763  0.71658672     0.14200
H212        H  0.64185375  0.69211565  0.73078347     0.14000
C213        C  0.63795230  0.39705448  0.27258933     0.85700
C214        C  0.63968206  0.41088759  0.23058837    -0.54500
C215        C  0.62517295  0.39374491  0.20477325     0.08700
C216        C  0.61043518  0.36424817  0.22295304     0.19600
C217        C  0.61009199  0.39872994  0.28120391    -0.55200
C218        C  0.59572541  0.38187092  0.25539799     0.08800
C219        C  0.64421357  0.35835378  0.26902654    -0.54700
C220        C  0.62956208  0.34105961  0.24366437     0.09300
H221        H  0.64938021  0.43375305  0.22171305     0.13900
H222        H  0.59870173  0.35024353  0.20204607    -0.00400
H223        H  0.60239820  0.41194205  0.30615197     0.14200
H224        H  0.65779244  0.34521268  0.28716988     0.14000
N225        N  0.69053469  0.49943113  0.45390479    -0.28000
N226        N  0.71201924  0.49814074  0.43566956    -0.35900
C227        C  0.70913516  0.48272428  0.40135866     0.00300
C228        C  0.68462924  0.47380402  0.39760704     0.06300
C229        C  0.67335499  0.48444382  0.43159449    -0.06800
H230        H  0.72395498  0.47755840  0.38110411     0.07000
H231        H  0.65412141  0.48154153  0.43944334     0.08200
Cu232      Cu  0.74486208  0.51467056  0.45881879     0.44200
Cu233      Cu  0.68619682  0.52203313  0.50813507     0.42000
Cu234      Cu  0.74348653  0.55599097  0.55044413     0.43900
N235        N  0.77646641  0.52723830  0.48852204    -0.35400
N236        N  0.77624450  0.54267160  0.52242078    -0.29700
C237        C  0.79971879  0.54561789  0.53488187    -0.05800
C238        C  0.81538445  0.53077700  0.50763284     0.06400
C239        C  0.79992547  0.51978342  0.47850180     0.00200
H240        H  0.80491161  0.55737345  0.56189222     0.07900
H241        H  0.80527778  0.50641695  0.45237571     0.07000
N242        N  0.70841864  0.56225866  0.57433732    -0.36900
N243        N  0.68785869  0.54944800  0.55982712    -0.29000
C244        C  0.66878528  0.55813680  0.58304569    -0.04300
C245        C  0.67766631  0.57781868  0.61330378     0.04300
C246        C  0.70291085  0.57949439  0.60689737     0.02400
H247        H  0.64984656  0.55061524  0.57815143     0.07500
H248        H  0.71633279  0.59275979  0.62437650     0.06400
O249        O  0.05795236  0.48681255  0.53566220    -0.73700
O250        O  0.13209194  0.47897336  0.53860796    -0.74700
O251        O  0.09634263  0.51435483  0.58313712    -0.63300
O252        O  0.09498367  0.45163209  0.49068926    -0.71700
O253        O  0.09733803  0.49782728  0.45296588    -0.71200
O254        O  0.09852344  0.56022373  0.54525166    -0.62500
O255        O  0.13461240  0.52485925  0.50031262    -0.75000
O256        O  0.06034302  0.53276250  0.49746002    -0.73800
Cu257      Cu  0.09508703  0.48140253  0.53841216     1.04600
Cu258      Cu  0.09766218  0.53051096  0.49768393     1.04300
C259        C  0.04741747  0.51081335  0.51596862     0.92500
C260        C  0.14502223  0.50047395  0.51954796     0.91700
C261        C  0.09833900  0.54701569  0.57913371     0.83800
C262        C  0.09704281  0.46502451  0.45706514     0.90100
O263        O  0.00736916  0.49119570  0.53337432    -0.73700
O264        O  0.93306284  0.49704043  0.52962187    -0.74700
O265        O  0.96954713  0.46123201  0.48700959    -0.63300
O266        O  0.96998669  0.52684227  0.57604731    -0.71700
O267        O  0.97093505  0.57131137  0.53533535    -0.71200
O268        O  0.97277682  0.50529833  0.44609630    -0.62500
O269        O  0.93516103  0.54035803  0.48772009    -0.75000
O270        O  0.00955634  0.53623740  0.49376030    -0.73800
Cu271      Cu  0.97007891  0.49254338  0.53293546     1.04600
Cu272      Cu  0.97235236  0.53985657  0.48929600     1.04300
C273        C  0.02019048  0.51292159  0.51435465     0.92500
C274        C  0.92237359  0.51931735  0.50772544     0.91700
C275        C  0.97025909  0.47305706  0.45258525     0.83800
C276        C  0.96954721  0.55930802  0.56965665     0.90100
C277        C  0.93699035  0.63148466  0.77623583     0.85700
C278        C  0.93576280  0.61658779  0.73544536    -0.54500
C279        C  0.94954773  0.63385010  0.70888820     0.08700
C280        C  0.96342701  0.66483746  0.72528358     0.19600
C281        C  0.96492007  0.63275580  0.78557500    -0.55200
C282        C  0.97883140  0.64972814  0.75877447     0.08800
C283        C  0.93002961  0.66994223  0.77204253    -0.54700
C284        C  0.94357173  0.68755354  0.74511443     0.09300
H285        H  0.92598907  0.59307635  0.72864594     0.13900
H286        H  0.97466470  0.67824245  0.70321486    -0.00400
H287        H  0.97314263  0.62111720  0.81117089     0.14200
H288        H  0.91729581  0.68314026  0.79130288     0.14000
C289        C  0.93694701  0.39096497  0.24950827     0.85700
C290        C  0.93430044  0.40759187  0.28994246    -0.54500
C291        C  0.94894402  0.39257078  0.31768652     0.08700
C292        C  0.96470098  0.36216620  0.30287507     0.19600
C293        C  0.96492234  0.39269029  0.24162396    -0.55200
C294        C  0.97938052  0.37793123  0.26951093     0.08800
C295        C  0.93180711  0.35251148  0.25646404    -0.54700
C296        C  0.94656617  0.33724359  0.28383151     0.09300
H297        H  0.92416864  0.43116816  0.29616807     0.13900
H298        H  0.97646172  0.34987556  0.32551959    -0.00400
H299        H  0.97261490  0.40469250  0.21599333     0.14200
H300        H  0.91917256  0.33784785  0.23875534     0.14000
N301        N  0.85732766  0.47553175  0.07866947    -0.28000
N302        N  0.87875031  0.47957330  0.06079084    -0.35900
C303        C  0.89704440  0.46797724  0.08409516     0.00300
C304        C  0.88656745  0.45681971  0.11836720     0.06300
C305        C  0.86141334  0.46182017  0.11380003    -0.06800
H306        H  0.91651077  0.46796584  0.07680944     0.07000
H307        H  0.84704923  0.45537577  0.13425646     0.08200
Cu308      Cu  0.88214155  0.50171389  0.00606527     0.44200
Cu309      Cu  0.82300517  0.48720869  0.05530104     0.42000
Cu310      Cu  0.82328335  0.52549829  0.96191487     0.43900
N311        N  0.87883582  0.52605937  0.95244451    -0.35400
N312        N  0.85727340  0.53396799  0.93648761    -0.29700
C313        C  0.86110526  0.54966780  0.90243348    -0.05800
C314        C  0.88634659  0.55196057  0.89628001     0.06400
C315        C  0.89701170  0.53696346  0.92892627     0.00200
H316        H  0.84645639  0.55914279  0.88377480     0.07900
H317        H  0.91651106  0.53508297  0.93579594     0.07000
N318        N  0.79108425  0.51568424  0.99194939    -0.36900
N319        N  0.79087576  0.50105867  0.02642793    -0.29000
C320        C  0.76729090  0.49752985  0.03803026    -0.04300
C321        C  0.75190387  0.51113451  0.00960190     0.04300
C322        C  0.76768522  0.52209394  0.98068977     0.02400
H323        H  0.76181938  0.48550865  0.06488785     0.07500
H324        H  0.76254423  0.53390677  0.95343978     0.06400
C325        C  0.93793067  0.89332588  0.77741371     0.85700
C326        C  0.93038250  0.85547192  0.77150561    -0.54500
C327        C  0.94474396  0.83759732  0.74603793     0.08700
C328        C  0.96394575  0.86009398  0.72533376     0.19600
C329        C  0.96607000  0.89132250  0.78576693    -0.55200
C330        C  0.97964692  0.87413051  0.75840081     0.08800
C331        C  0.93589648  0.90880648  0.73673178    -0.54700
C332        C  0.94998047  0.89226600  0.70963940     0.09300
H333        H  0.91591000  0.84219806  0.78691034     0.13900
H334        H  0.97482718  0.84597527  0.70308306    -0.00400
H335        H  0.97452285  0.90399364  0.81023618     0.14200
H336        H  0.92604733  0.93281972  0.73054438     0.14000
C337        C  0.94118318  0.13647504  0.24028098     0.85700
C338        C  0.93838283  0.17552013  0.24569229    -0.54500
C339        C  0.95349775  0.18883923  0.27314651     0.08700
C340        C  0.96983957  0.16145399  0.29392224     0.19600
C341        C  0.96901515  0.13011733  0.23342698    -0.55200
C342        C  0.98408112  0.14319959  0.26119364     0.08800
C343        C  0.93682380  0.12123998  0.28109676    -0.54700
C344        C  0.95242818  0.13335841  0.30881993     0.09300
H345        H  0.92614016  0.19158640  0.22814420     0.13900
H346        H  0.98181839  0.17220499  0.31682633    -0.00400
H347        H  0.97607637  0.11800550  0.20744180     0.14200
H348        H  0.92468936  0.10010473  0.28772316     0.14000
N349        N  0.87887479  0.00326432  0.95015973    -0.28000
N350        N  0.85745811  0.99353571  0.93566697    -0.35900
C351        C  0.86159446  0.97449302  0.90400164     0.00300
C352        C  0.88683272  0.97192485  0.89832306     0.06300
C353        C  0.89728593  0.99070841  0.92785770    -0.06800
H354        H  0.84726428  0.96285831  0.88677851     0.07000
H355        H  0.91679204  0.99393828  0.93350831     0.08200
Cu356      Cu  0.82342730  0.00518060  0.95959635     0.44200
Cu357      Cu  0.88183469  0.03108076  0.00098715     0.42000
Cu358      Cu  0.82351320  0.05819248  0.04411394     0.43900
N359        N  0.79160943  0.02109767  0.98757163    -0.35400
N360        N  0.79173215  0.04157402  0.01795019    -0.29700
C361        C  0.76840035  0.04713540  0.02982599    -0.05800
C362        C  0.75290826  0.02886472  0.00606532     0.06400
C363        C  0.76814053  0.01279084  0.97938031     0.00200
H364        H  0.76317656  0.06243284  0.05466242     0.07900
H365        H  0.76263798  0.99617271  0.95598390     0.07000
N366        N  0.85744683  0.06572178  0.06925743    -0.36900
N367        N  0.87877608  0.05612898  0.05365167    -0.29000
C368        C  0.89717353  0.06421267  0.07795245    -0.04300
C369        C  0.88677594  0.07902682  0.11049415     0.04300
C370        C  0.86161506  0.07985351  0.10392096     0.02400
H371        H  0.91660803  0.05930103  0.07256543     0.07500
H372        H  0.84736716  0.09009872  0.12282212     0.06400
O373        O  0.09790659  0.02583948  0.44297911    -0.73700
O374        O  0.09916434  0.96705350  0.53841610    -0.74700
O375        O  0.06095494  0.99500795  0.49056090    -0.63300
O376        O  0.13516594  0.99740610  0.49070313    -0.71700
O377        O  0.13435440  0.04505230  0.52573646    -0.71200
O378        O  0.06015739  0.04202275  0.52692634    -0.62500
O379        O  0.09883834  0.01423663  0.57404170    -0.75000
O380        O  0.09677421  0.07307557  0.47876944    -0.73800
Cu381      Cu  0.09820402  0.99471351  0.48938416     1.04600
Cu382      Cu  0.09731626  0.04522665  0.52762829     1.04300
C383        C  0.09828648  0.05872557  0.44576711     0.92500
C384        C  0.09996806  0.98139749  0.57154466     0.91700
C385        C  0.04884172  0.01806096  0.50916984     0.83800
C386        C  0.14653459  0.02167554  0.50769479     0.90100
O387        O  0.96981701  0.02404735  0.44923184    -0.73700
O388        O  0.97421713  0.96193034  0.54167899    -0.74700
O389        O  0.93524638  0.99290913  0.49961626    -0.63300
O390        O  0.00982560  0.99393700  0.49232750    -0.71700
O391        O  0.01007579  0.03966155  0.53066586    -0.71200
O392        O  0.93639879  0.04001923  0.53576740    -0.62500
O393        O  0.97418181  0.00771392  0.57976819    -0.75000
O394        O  0.97134156  0.07057749  0.48568705    -0.73800
Cu395      Cu  0.97239007  0.99165501  0.49432850     1.04600
Cu396      Cu  0.97316458  0.04107204  0.53429000     1.04300
C397        C  0.96923274  0.05691805  0.45230567     0.92500
C398        C  0.97386506  0.97487100  0.57549231     0.91700
C399        C  0.92418901  0.01638018  0.51923401     0.83800
C400        C  0.02165895  0.01710336  0.51064596     0.90100
C401        C  0.12876693  0.63621351  0.78150043     0.85700
C402        C  0.13228429  0.67500549  0.77493589    -0.54500
C403        C  0.11758748  0.68898985  0.74680291     0.08700
C404        C  0.10131434  0.66241638  0.72599731     0.19600
C405        C  0.10065350  0.63195047  0.78744970    -0.55200
C406        C  0.08625910  0.64531048  0.75834498     0.08800
C407        C  0.13333648  0.61996483  0.74132192    -0.54700
C408        C  0.11880037  0.63319132  0.71242067     0.09300
H409        H  0.14453110  0.69052031  0.79238942     0.13900
H410        H  0.08985845  0.67368104  0.70237067    -0.00400
H411        H  0.09288106  0.61990991  0.81297707     0.14200
H412        H  0.14431166  0.59699520  0.73602131     0.14000
C413        C  0.12810978  0.39155548  0.24698158     0.85700
C414        C  0.13608374  0.35398825  0.25293363    -0.54500
C415        C  0.12262255  0.33623313  0.27962786     0.08700
C416        C  0.10241242  0.35881276  0.29941882     0.19600
C417        C  0.10001500  0.39015663  0.23866877    -0.55200
C418        C  0.08651570  0.37306888  0.26584648     0.08800
C419        C  0.12884521  0.40812800  0.28719174    -0.54700
C420        C  0.11543568  0.39121021  0.31467387     0.09300
H421        H  0.15014083  0.34165297  0.23504883     0.13900
H422        H  0.09166685  0.34546101  0.32213199    -0.00400
H423        H  0.09112909  0.40337829  0.21462744     0.14200
H424        H  0.13693360  0.43310392  0.29267931     0.14000
N425        N  0.27780788  0.53441259  0.00912668    -0.28000
N426        N  0.27711281  0.51777105  0.04246590    -0.35900
C427        C  0.30033478  0.51145120  0.05463497     0.00300
C428        C  0.31648200  0.52507771  0.02784077     0.06300
C429        C  0.30157473  0.53930435  0.99921951    -0.06800
H430        H  0.30510661  0.49752473  0.08079373     0.07000
H431        H  0.30753661  0.55131802  0.97260964     0.08200
Cu432      Cu  0.24473043  0.50279363  0.06876748     0.44200
Cu433      Cu  0.24621152  0.54770847  0.97822223     0.42000
Cu434      Cu  0.18687286  0.52838038  0.02400709     0.43900
N435        N  0.21057517  0.48840065  0.08938723    -0.35400
N436        N  0.18927322  0.49805666  0.07373741    -0.29700
C437        C  0.17075504  0.48379471  0.09404573    -0.05800
C438        C  0.18098212  0.46379550  0.12352930     0.06400
C439        C  0.20626270  0.46769481  0.11975721     0.00200
H440        H  0.15132394  0.48780140  0.08779681     0.07900
H441        H  0.22057686  0.45594477  0.13748339     0.07000
N442        N  0.19049431  0.55282775  0.97062820    -0.36900
N443        N  0.21198593  0.55864056  0.95363783    -0.29000
C444        C  0.20786370  0.57284886  0.91869732    -0.04300
C445        C  0.18259154  0.57619332  0.91337735     0.04300
C446        C  0.17214266  0.56359107  0.94700325     0.02400
H447        H  0.22223748  0.58045190  0.89877088     0.07500
H448        H  0.15262593  0.56174288  0.95348043     0.06400
C449        C  0.12813352  0.88881333  0.77499085     0.85700
C450        C  0.13143129  0.90876413  0.73712016    -0.54500
C451        C  0.11889206  0.89557142  0.70641931     0.08700
C452        C  0.10386963  0.86307000  0.71668461     0.19600
C453        C  0.09964353  0.88899453  0.77991414    -0.55200
C454        C  0.08688687  0.87534260  0.74963251     0.08800
C455        C  0.13498096  0.85125701  0.76590304    -0.54700
C456        C  0.12219640  0.83748709  0.73590254     0.09300
H457        H  0.14109602  0.93311296  0.73548170     0.13900
H458        H  0.09392672  0.85133353  0.69218593    -0.00400
H459        H  0.08987229  0.90066841  0.80392749     0.14200
H460        H  0.14699503  0.83572498  0.78442628     0.14000
C461        C  0.13284992  0.13223831  0.23596964     0.85700
C462        C  0.13300244  0.11369529  0.27517072    -0.54500
C463        C  0.11837093  0.12914939  0.30228531     0.08700
C464        C  0.10521797  0.16226622  0.28835354     0.19600
C465        C  0.10525931  0.13582959  0.22498508    -0.55200
C466        C  0.09067568  0.15062354  0.25277507     0.08800
C467        C  0.14018371  0.16974531  0.24528237    -0.54700
C468        C  0.12523386  0.18593064  0.27155406     0.09300
H469        H  0.14265294  0.08934190  0.28036781     0.13900
H470        H  0.09379256  0.17412010  0.31146967    -0.00400
H471        H  0.09776108  0.12646890  0.19797296     0.14200
H472        H  0.15386173  0.18437221  0.22970028     0.14000
N473        N  0.27982561  0.00515681  0.02589316    -0.28000
N474        N  0.28012729  0.98727649  0.99353229    -0.35900
C475        C  0.30374995  0.98191934  0.98266572     0.00300
C476        C  0.31891884  0.99739290  0.00952350     0.06300
C477        C  0.30313589  0.01160024  0.03666572    -0.06800
H478        H  0.30940644  0.96760299  0.95734848     0.07000
H479        H  0.30819997  0.02598793  0.06211497     0.08200
Cu480      Cu  0.24818306  0.97209505  0.96589546     0.44200
Cu481      Cu  0.24793446  0.02118447  0.05305789     0.42000
Cu482      Cu  0.19006806  0.00763868  0.00520087     0.43900
N483        N  0.21352433  0.96375000  0.94264273    -0.35400
N484        N  0.19272827  0.97751676  0.95604642    -0.29700
C485        C  0.17388310  0.96779350  0.93349852    -0.05800
C486        C  0.18311230  0.94618607  0.90499258     0.06400
C487        C  0.20838265  0.94459334  0.91149391     0.00200
H488        H  0.15490928  0.97618634  0.93753017     0.07900
H489        H  0.22208364  0.93041340  0.89493005     0.07000
N490        N  0.19311275  0.03402959  0.05682521    -0.36900
N491        N  0.21455934  0.03853239  0.07420853    -0.29000
C492        C  0.21092582  0.05611686  0.10699369    -0.04300
C493        C  0.18597094  0.06348169  0.11034777     0.04300
C494        C  0.17511155  0.04867914  0.07830815     0.02400
H495        H  0.22541126  0.06244396  0.12720496     0.07500
H496        H  0.15562190  0.04858134  0.07117122     0.06400
C497        C  0.17344355  0.08102596  0.14275596    -0.06900
C498        C  0.15257793  0.06569204  0.15883638    -0.18000
C499        C  0.14014323  0.08053712  0.19025522     0.10300
C500        C  0.14793582  0.11287594  0.20501888    -0.06800
C501        C  0.16981937  0.12700604  0.18976251    -0.18000
C502        C  0.18240386  0.11177067  0.15873761     0.10400
S503        S  0.11468460  0.05707248  0.21111722    -0.33000
S504        S  0.20904205  0.13309619  0.13848206    -0.33000
H505        H  0.20984069  0.16078448  0.16454175     0.28400
H506        H  0.11578905  0.02808289  0.18687371     0.28400
H507        H  0.14634646  0.04148978  0.14709056     0.19000
H508        H  0.17763248  0.14982522  0.20189856     0.19000
C509        C  0.14302691  0.90276359  0.80919232    -0.06900
C510        C  0.13217310  0.90478704  0.84621565    -0.18000
C511        C  0.14501929  0.91730696  0.87805519     0.10300
C512        C  0.16931474  0.92947475  0.87332817    -0.06800
C513        C  0.18091323  0.92534468  0.83737529    -0.18000
C514        C  0.16850655  0.91093159  0.80585641     0.10400
S515        S  0.12990622  0.91403112  0.92435306    -0.33000
S516        S  0.18601908  0.90223857  0.76233680    -0.33000
H517        H  0.20967819  0.90726323  0.77809113     0.28400
H518        H  0.15155098  0.90464893  0.94462945     0.28400
H519        H  0.11401712  0.89468853  0.85167337     0.19000
H520        H  0.19983467  0.93357537  0.83384074     0.19000
C521        C  0.12391562  0.22440096  0.27402881    -0.06900
C522        C  0.12413981  0.24061609  0.31025942    -0.18000
C523        C  0.12396558  0.27689260  0.31337745     0.10300
C524        C  0.12321836  0.29759401  0.27964716    -0.06800
C525        C  0.12227942  0.28113918  0.24365329    -0.18000
C526        C  0.12220203  0.24532717  0.24043234     0.10400
S527        S  0.12597320  0.29515207  0.36085704    -0.33000
S528        S  0.11820033  0.22843169  0.19243109    -0.33000
H529        H  0.09959590  0.20553203  0.20352139     0.28400
H530        H  0.14125584  0.32236930  0.34926722     0.28400
H531        H  0.12510643  0.22494751  0.33621530     0.19000
H532        H  0.12064754  0.29646132  0.21750033     0.19000
C533        C  0.14322787  0.40919022  0.21503426    -0.06900
C534        C  0.13455190  0.40781995  0.17658591    -0.18000
C535        C  0.14662039  0.42445309  0.14621853     0.10300
C536        C  0.16813946  0.44345903  0.15371781    -0.06800
C537        C  0.17818947  0.44235929  0.19107627    -0.18000
C538        C  0.16669454  0.42443598  0.22121892     0.10400
S539        S  0.13437392  0.41822893  0.09836645    -0.33000
S540        S  0.18407940  0.42094584  0.26557568    -0.33000
H541        H  0.17752945  0.38673215  0.27356977     0.28400
H542        H  0.15765543  0.41593834  0.08030828     0.28400
H543        H  0.11859136  0.39263803  0.16939346     0.19000
H544        H  0.19540846  0.45532837  0.19688922     0.19000
C545        C  0.11619404  0.72692030  0.74040726    -0.06900
C546        C  0.13289978  0.74185748  0.71436683    -0.18000
C547        C  0.13510661  0.77787376  0.71115963     0.10300
C548        C  0.11949578  0.79955974  0.73343115    -0.06800
C549        C  0.10205461  0.78463456  0.75802506    -0.18000
C550        C  0.10061206  0.74889160  0.76265127     0.10400
S551        S  0.15876792  0.79387714  0.67924113    -0.33000
S552        S  0.07920171  0.73428602  0.79904144    -0.33000
H553        H  0.08949257  0.70160529  0.80537255     0.28400
H554        H  0.15831389  0.82853360  0.69075693     0.28400
H555        H  0.14516028  0.72528617  0.69771807     0.19000
H556        H  0.09031440  0.80119104  0.77560516     0.19000
C557        C  0.16949744  0.59092317  0.87949735    -0.06900
C558        C  0.15199515  0.61729975  0.88539954    -0.18000
C559        C  0.13943757  0.63308889  0.85436363     0.10300
C560        C  0.14395815  0.62174439  0.81587240    -0.06800
C561        C  0.16241394  0.59597405  0.81046047    -0.18000
C562        C  0.17471108  0.58021853  0.84153124     0.10400
S563        S  0.11822067  0.66829055  0.86502034    -0.33000
S564        S  0.19608877  0.54541798  0.83065553    -0.33000
H565        H  0.19002201  0.52529765  0.86311692     0.28400
H566        H  0.11710786  0.66325513  0.90521990     0.28400
H567        H  0.14857935  0.62607186  0.91457861     0.19000
H568        H  0.16769164  0.58722603  0.78225606     0.19000
C569        C  0.10139079  0.07972313  0.41031714    -0.06900
C570        C  0.09187921  0.06681640  0.37571874    -0.18000
C571        C  0.09690410  0.08270556  0.34029775     0.10300
C572        C  0.11198043  0.11213819  0.33917335    -0.06800
C573        C  0.12084592  0.12588164  0.37367629    -0.18000
C574        C  0.11576522  0.11004799  0.40918248     0.10400
S575        S  0.08367580  0.06527208  0.29694909    -0.33000
S576        S  0.12992569  0.12809122  0.45137715    -0.33000
H577        H  0.10700422  0.13609238  0.46867582     0.28400
H578        H  0.07208933  0.03671920  0.31397050     0.28400
H579        H  0.08069189  0.04386506  0.37647718     0.19000
H580        H  0.13223713  0.14866719  0.37285116     0.19000
C581        C  0.10346557  0.95965283  0.60675467    -0.06900
C582        C  0.11116169  0.92502303  0.60199493    -0.18000
C583        C  0.11640925  0.90354014  0.63374044     0.10300
C584        C  0.11434948  0.91690485  0.67130282    -0.06800
C585        C  0.10632571  0.95124670  0.67625701    -0.18000
C586        C  0.10063697  0.97267034  0.64472024     0.10400
S587        S  0.12641040  0.85954410  0.62584221    -0.33000
S588        S  0.08882428  0.01576738  0.65418538    -0.33000
H589        H  0.09149988  0.01514637  0.69457501     0.28400
H590        H  0.12330518  0.85941372  0.58552971     0.28400
H591        H  0.11350718  0.91480132  0.57320049     0.19000
H592        H  0.10379107  0.96098139  0.70524381     0.19000
C593        C  0.01144402  0.14399866  0.25775192    -0.06900
C594        C  0.02316292  0.17447307  0.26860617    -0.18000
C595        C  0.04872302  0.17794404  0.26560087     0.10300
C596        C  0.06324784  0.15042206  0.25130964    -0.06800
C597        C  0.05150924  0.12033918  0.23898029    -0.18000
C598        C  0.02590546  0.11644137  0.24269713     0.10400
S599        S  0.06194538  0.21877866  0.27735986    -0.33000
S600        S  0.01285198  0.07500419  0.23150393    -0.33000
H601        H  0.03330216  0.06171776  0.21095211     0.28400
H602        H  0.04220236  0.23062812  0.30050326     0.28400
H603        H  0.01217665  0.19627437  0.27844073     0.19000
H604        H  0.06261978  0.09895857  0.22838437     0.19000
C605        C  0.92567659  0.12285882  0.20655793    -0.06900
C606        C  0.90653664  0.09903137  0.21284045    -0.18000
C607        C  0.89395444  0.08382418  0.18221540     0.10300
C608        C  0.89992079  0.09297416  0.14399493    -0.06800
C609        C  0.91815638  0.11739322  0.13722955    -0.18000
C610        C  0.93078372  0.13286354  0.16771398     0.10400
S611        S  0.87109568  0.05194961  0.19398197    -0.33000
S612        S  0.95298827  0.16574208  0.15572511    -0.33000
H613        H  0.95393671  0.15994539  0.11569165     0.28400
H614        H  0.87572007  0.03095079  0.16169334     0.28400
H615        H  0.90094985  0.09154607  0.24142730     0.19000
H616        H  0.92205001  0.12497497  0.10773884     0.19000
C617        C  0.96567043  0.07826534  0.41643054    -0.06900
C618        C  0.96664334  0.06099783  0.38078201    -0.18000
C619        C  0.96256871  0.07820574  0.34568281     0.10300
C620        C  0.95718677  0.11404963  0.34552404    -0.06800
C621        C  0.95709087  0.13183076  0.38070165    -0.18000
C622        C  0.96086370  0.11443121  0.41601827     0.10400
S623        S  0.96591847  0.05402452  0.30135201    -0.33000
S624        S  0.95860095  0.13998132  0.45914564    -0.33000
H625        H  0.94030780  0.11904569  0.47568004     0.28400
H626        H  0.96650944  0.02084559  0.31797668     0.28400
H627        H  0.97088244  0.03365451  0.38019655     0.19000
H628        H  0.95335953  0.15936080  0.38074331     0.19000
C629        C  0.00712286  0.87276167  0.75711759    -0.06900
C630        C  0.01848194  0.88077920  0.72190361    -0.18000
C631        C  0.04420611  0.88117785  0.71788060     0.10300
C632        C  0.05933489  0.87297158  0.75009448    -0.06800
C633        C  0.04788638  0.86353694  0.78501855    -0.18000
C634        C  0.02207215  0.86354952  0.78903294     0.10400
S635        S  0.05653046  0.89508659  0.67210261    -0.33000
S636        S  0.00881965  0.85095764  0.83471736    -0.33000
H637        H  0.03098168  0.84036401  0.85276663     0.28400
H638        H  0.03485854  0.89108120  0.65016508     0.28400
H639        H  0.00706936  0.88804032  0.69748913     0.19000
H640        H  0.05932236  0.85632165  0.80947790     0.19000
C641        C  0.92397322  0.91436138  0.80842230    -0.06900
C642        C  0.90617466  0.89874830  0.83250991    -0.18000
C643        C  0.89440848  0.91660548  0.86230390     0.10300
C644        C  0.89978137  0.95153819  0.86850767    -0.06800
C645        C  0.91738006  0.96760844  0.84520134    -0.18000
C646        C  0.92948955  0.94968953  0.81530967     0.10400
S647        S  0.87369015  0.89254289  0.89282651    -0.33000
S648        S  0.95213873  0.97260303  0.78682636    -0.33000
H649        H  0.94834100  0.00540911  0.80316576     0.28400
H650        H  0.88058106  0.90887921  0.92730125     0.28400
H651        H  0.90142077  0.87194623  0.82994314     0.19000
H652        H  0.92143301  0.99447425  0.85033048     0.19000
C653        C  0.95764541  0.91096152  0.67422468    -0.06900
C654        C  0.97221613  0.94044212  0.67861233    -0.18000
C655        C  0.97942682  0.96032270  0.64680076     0.10300
C656        C  0.97114982  0.95152554  0.60947193    -0.06800
C657        C  0.95768266  0.92087121  0.60496791    -0.18000
C658        C  0.95080399  0.90064675  0.63683899     0.10400
S659        S  0.99997520  0.99564048  0.65568813    -0.33000
S660        S  0.93268006  0.86276639  0.62793607    -0.33000
H661        H  0.92013100  0.86242348  0.66346731     0.28400
H662        H  0.01319128  0.99179654  0.62090576     0.28400
H663        H  0.97829445  0.94780278  0.70722240     0.19000
H664        H  0.95142953  0.91335247  0.57653651     0.19000
C665        C  0.00671421  0.37770676  0.26847736    -0.06900
C666        C  0.01918066  0.34680837  0.27740927    -0.18000
C667        C  0.04494575  0.34447392  0.27600266     0.10300
C668        C  0.05893088  0.37347220  0.26550788    -0.06800
C669        C  0.04631034  0.40433781  0.25605163    -0.18000
C670        C  0.02057724  0.40713856  0.25867332     0.10400
S671        S  0.05870770  0.30307547  0.28495392    -0.33000
S672        S  0.00701170  0.44956651  0.25203416    -0.33000
H673        H  0.98837712  0.44549174  0.27997315     0.28400
H674        H  0.07356740  0.30476982  0.25172515     0.28400
H675        H  0.00874667  0.32395263  0.28454341     0.19000
H676        H  0.05656610  0.42703250  0.24799658     0.19000
C677        C  0.95036060  0.29929246  0.28484892    -0.06900
C678        C  0.96241007  0.28434914  0.25318914    -0.18000
C679        C  0.96495737  0.24862684  0.24959969     0.10300
C680        C  0.95530918  0.22672433  0.27866544    -0.06800
C681        C  0.94416096  0.24171149  0.31130188    -0.18000
C682        C  0.94155636  0.27775799  0.31472107     0.10400
S683        S  0.97990558  0.23357611  0.20615199    -0.33000
S684        S  0.92512784  0.29423325  0.35619330    -0.33000
H685        H  0.93535493  0.32727247  0.35607727     0.28400
H686        H  0.98606574  0.20047424  0.21904928     0.28400
H687        H  0.96944383  0.30083552  0.23041620     0.19000
H688        H  0.93645786  0.22519022  0.33344454     0.19000
C689        C  0.92220264  0.40678119  0.21557146    -0.06900
C690        C  0.90603983  0.43529671  0.22100662    -0.18000
C691        C  0.89503209  0.45272998  0.18988804     0.10300
C692        C  0.89918495  0.44100137  0.15197579    -0.06800
C693        C  0.91444086  0.41208697  0.14607335    -0.18000
C694        C  0.92579074  0.39467068  0.17710486     0.10400
S695        S  0.87680328  0.49089911  0.20047139    -0.33000
S696        S  0.94461587  0.35683643  0.16648070    -0.33000
H697        H  0.94674895  0.36247220  0.12647541     0.28400
H698        H  0.88377762  0.50918670  0.16711498     0.28400
H699        H  0.90190871  0.44514558  0.24934587     0.19000
H700        H  0.91700173  0.40265024  0.11691312     0.19000
C701        C  0.00635542  0.64969836  0.76001183    -0.06900
C702        C  0.01875802  0.61886767  0.77005256    -0.18000
C703        C  0.04456921  0.61620918  0.76966216     0.10300
C704        C  0.05871776  0.64507489  0.75833310    -0.06800
C705        C  0.04622874  0.67553286  0.74725567    -0.18000
C706        C  0.02050134  0.67858763  0.74936058     0.10400
S707        S  0.05759605  0.57455443  0.78208638    -0.33000
S708        S  0.00732181  0.72094927  0.74192632    -0.33000
H709        H  0.99181055  0.71820719  0.77432106     0.28400
H710        H  0.07811185  0.57718001  0.75789355     0.28400
H711        H  0.00821861  0.59617726  0.77738347     0.19000
H712        H  0.05662460  0.69788415  0.73845126     0.19000
C713        C  0.94315322  0.72601870  0.74336125    -0.06900
C714        C  0.94344457  0.74361100  0.77860049    -0.18000
C715        C  0.94485625  0.77935944  0.78031363     0.10300
C716        C  0.94517633  0.79910842  0.74566514    -0.06800
C717        C  0.94544238  0.78165333  0.71023665    -0.18000
C718        C  0.94429408  0.74544241  0.70867104     0.10400
S719        S  0.94767726  0.79714123  0.82816534    -0.33000
S720        S  0.94334153  0.72600966  0.66160445    -0.33000
H721        H  0.92816730  0.69873785  0.67286792     0.28400
H722        H  0.96341861  0.82358936  0.81685822     0.28400
H723        H  0.94380469  0.72920217  0.80548214     0.19000
H724        H  0.94581919  0.79635293  0.68357117     0.19000
C725        C  0.92215889  0.60988128  0.80527812    -0.06900
C726        C  0.93338106  0.57960555  0.82044118    -0.18000
C727        C  0.92189967  0.55946077  0.84868434     0.10300
C728        C  0.89866501  0.56991366  0.86357538    -0.06800
C729        C  0.88642074  0.59813736  0.84611824    -0.18000
C730        C  0.89716804  0.61682848  0.81592430     0.10400
S731        S  0.93721061  0.51957204  0.86213615    -0.33000
S732        S  0.87656366  0.64571860  0.79003396    -0.33000
H733        H  0.88665327  0.63833631  0.75352434     0.28400
H734        H  0.91524372  0.50074377  0.86560653     0.28400
H735        H  0.95118801  0.57090482  0.80959256     0.19000
H736        H  0.86793210  0.60536924  0.85536490     0.19000
C737        C  0.95414074  0.40983021  0.35490419    -0.06900
C738        C  0.97888389  0.41753424  0.36363798    -0.18000
C739        C  0.98498241  0.43746985  0.39578283     0.10300
C740        C  0.96592278  0.44966894  0.42014499    -0.06800
C741        C  0.94133853  0.44093406  0.41235277    -0.18000
C742        C  0.93518974  0.42140048  0.37999741     0.10400
S743        S  0.01722032  0.44711630  0.40322361    -0.33000
S744        S  0.90287788  0.41249135  0.37243507    -0.33000
H745        H  0.90666369  0.38109372  0.35301398     0.28400
H746        H  0.01565770  0.45457816  0.44280455     0.28400
H747        H  0.99359159  0.40905496  0.34451191     0.19000
H748        H  0.92670314  0.44988910  0.43138765     0.19000
C749        C  0.95464278  0.61947250  0.67024420    -0.06900
C750        C  0.97902251  0.60866222  0.66224528    -0.18000
C751        C  0.98475989  0.59013497  0.62876580     0.10300
C752        C  0.96579894  0.58286663  0.60223892    -0.06800
C753        C  0.94165665  0.59497933  0.60929930    -0.18000
C754        C  0.93575334  0.61291207  0.64312747     0.10400
S755        S  0.01623932  0.57499443  0.62257257    -0.33000
S756        S  0.90368045  0.62530001  0.64999927    -0.33000
H757        H  0.90663149  0.64810899  0.68086940     0.28400
H758        H  0.01569789  0.57334179  0.58205220     0.28400
H759        H  0.99353168  0.61325575  0.68313447     0.19000
H760        H  0.92703711  0.58906764  0.58902608     0.19000
C761        C  0.09980315  0.44310718  0.42221494    -0.06900
C762        C  0.09015354  0.45593773  0.38735584    -0.18000
C763        C  0.09459045  0.43911939  0.35231420     0.10300
C764        C  0.10867909  0.40813063  0.35175982    -0.06800
C765        C  0.11741285  0.39427933  0.38672970    -0.18000
C766        C  0.11359613  0.41170303  0.42177039     0.10400
S767        S  0.08281370  0.45843695  0.30842150    -0.33000
S768        S  0.12871812  0.39413784  0.46398913    -0.33000
H769        H  0.13830227  0.42595393  0.47586925     0.28400
H770        H  0.06662638  0.48244858  0.32587781     0.28400
H771        H  0.07967387  0.47995863  0.38743303     0.19000
H772        H  0.12851654  0.37082208  0.38654313     0.19000
C773        C  0.10175413  0.56958288  0.61362293    -0.06900
C774        C  0.10980416  0.60383207  0.60819555    -0.18000
C775        C  0.11547809  0.62523197  0.63972514     0.10300
C776        C  0.11358679  0.61213123  0.67751126    -0.06800
C777        C  0.10602288  0.57798122  0.68288539    -0.18000
C778        C  0.09926340  0.55717263  0.65197254     0.10400
S779        S  0.12648306  0.66842580  0.63165719    -0.33000
S780        S  0.08683941  0.51562588  0.66429002    -0.33000
H781        H  0.06652480  0.51921151  0.63907862     0.28400
H782        H  0.12874802  0.66591312  0.59130415     0.28400
H783        H  0.11204320  0.61376877  0.57917318     0.19000
H784        H  0.10501408  0.56737822  0.71170422     0.19000
C785        C  0.84272330  0.52700707  0.50845052    -0.06900
C786        C  0.85581377  0.53236653  0.47394163    -0.18000
C787        C  0.88161937  0.52915120  0.47241091     0.10300
C788        C  0.89500367  0.52112476  0.50646680    -0.06800
C789        C  0.88189340  0.51515833  0.54081170    -0.18000
C790        C  0.85604438  0.51755615  0.54210805     0.10400
S791        S  0.89600614  0.53443629  0.42578736    -0.33000
S792        S  0.84136528  0.50647419  0.58711936    -0.33000
H793        H  0.82170844  0.48876996  0.56992243     0.28400
H794        H  0.91463533  0.50937699  0.43176996     0.28400
H795        H  0.84583318  0.53905081  0.44776431     0.19000
H796        H  0.89188230  0.50850708  0.56699602     0.19000
C797        C  0.65229243  0.41543063  0.30479875    -0.06900
C798        C  0.66639437  0.44505588  0.29691349    -0.18000
C799        C  0.67645979  0.46494021  0.32650146     0.10300
C800        C  0.67345892  0.45473022  0.36529756    -0.06800
C801        C  0.66034388  0.42477444  0.37359305    -0.18000
C802        C  0.64987256  0.40494166  0.34416806     0.10400
S803        S  0.69158142  0.50436770  0.31278688    -0.33000
S804        S  0.63277914  0.36694839  0.35813093    -0.33000
H805        H  0.63922234  0.36666124  0.39746689     0.28400
H806        H  0.68337959  0.52348938  0.34488175     0.28400
H807        H  0.66923237  0.45412328  0.26794249     0.19000
H808        H  0.65834867  0.41691159  0.40344601     0.19000
C809        C  0.63851239  0.62366738  0.71028119    -0.06900
C810        C  0.62802429  0.62401690  0.67290474    -0.18000
C811        C  0.64019626  0.60963785  0.64104121     0.10300
C812        C  0.66372989  0.59393484  0.64577258    -0.06800
C813        C  0.67495398  0.59512707  0.68228160    -0.18000
C814        C  0.66321874  0.61080357  0.71393588     0.10400
S815        S  0.62529388  0.61483486  0.59478552    -0.33000
S816        S  0.68180883  0.61476560  0.75690613    -0.33000
H817        H  0.67355657  0.64829832  0.76583930     0.28400
H818        H  0.64717594  0.62288914  0.57488165     0.28400
H819        H  0.61049480  0.63695728  0.66762092     0.19000
H820        H  0.69340524  0.58436070  0.68609331     0.19000
C821        C  0.84508582  0.02027203  0.52806637    -0.06900
C822        C  0.85771761  0.98863344  0.53271027    -0.18000
C823        C  0.88353106  0.98666038  0.53087703     0.10300
C824        C  0.89706555  0.01676641  0.52293320    -0.06800
C825        C  0.88448140  0.04853705  0.51948446    -0.18000
C826        C  0.85874996  0.05070685  0.52259947     0.10400
S827        S  0.89812804  0.94551322  0.54098815    -0.33000
S828        S  0.84469050  0.09317811  0.52121558    -0.33000
H829        H  0.82591970  0.08571162  0.54801190     0.28400
H830        H  0.91771664  0.95953759  0.56222250     0.28400
H831        H  0.84741292  0.96523824  0.53774375     0.19000
H832        H  0.89480758  0.07193537  0.51454146     0.19000
C833        C  0.62305534  0.23054116  0.24978433    -0.06900
C834        C  0.63022028  0.24595904  0.21488879    -0.18000
C835        C  0.63278156  0.28193978  0.21198628     0.10300
C836        C  0.62780715  0.30290547  0.24439831    -0.06800
C837        C  0.61968011  0.28751768  0.27866713    -0.18000
C838        C  0.61711443  0.25174808  0.28169097     0.10400
S839        S  0.64351255  0.29961122  0.16701629    -0.33000
S840        S  0.60540084  0.23369257  0.32612813    -0.33000
H841        H  0.59885892  0.26509757  0.34387804     0.28400
H842        H  0.65888652  0.32380325  0.18468858     0.28400
H843        H  0.63466753  0.22984686  0.19028855     0.19000
H844        H  0.61517808  0.30377893  0.30310730     0.19000
C845        C  0.64810318  0.11920914  0.31827051    -0.06900
C846        C  0.65044036  0.08288524  0.31522814    -0.18000
C847        C  0.66387207  0.06311589  0.34191492     0.10300
C848        C  0.67468820  0.07933449  0.37376366    -0.06800
C849        C  0.67179356  0.11497674  0.37825144    -0.18000
C850        C  0.65781723  0.13474598  0.35212893     0.10400
S851        S  0.66648582  0.01728293  0.33359276    -0.33000
S852        S  0.65085090  0.17815492  0.36710275    -0.33000
H853        H  0.62520428  0.17299691  0.36545705     0.28400
H854        H  0.69000207  0.01301380  0.35043957     0.28400
H855        H  0.64119185  0.06903581  0.29257217     0.19000
H856        H  0.67919606  0.12718668  0.40380132     0.19000
C857        C  0.61554896  0.80506440  0.78806376    -0.06900
C858        C  0.60888516  0.78933177  0.75328097    -0.18000
C859        C  0.60834148  0.75363635  0.74952132     0.10300
C860        C  0.61416177  0.73223337  0.78153180    -0.06800
C861        C  0.61887754  0.74785765  0.81735112    -0.18000
C862        C  0.61998860  0.78405035  0.82084982     0.10400
S863        S  0.59995841  0.73743168  0.70277131    -0.33000
S864        S  0.62812612  0.80153882  0.86718850    -0.33000
H865        H  0.63999432  0.83103277  0.85301879     0.28400
H866        H  0.58621820  0.71043230  0.71814959     0.28400
H867        H  0.60460565  0.80519931  0.72821899     0.19000
H868        H  0.62287634  0.73181933  0.84228644     0.19000
C869        C  0.64369656  0.90982774  0.71542402    -0.06900
C870        C  0.63287235  0.93625719  0.69258810    -0.18000
C871        C  0.64497025  0.95037462  0.66072477     0.10300
C872        C  0.66871034  0.93790290  0.65041430    -0.06800
C873        C  0.68044552  0.91361751  0.67469020    -0.18000
C874        C  0.66880549  0.90065828  0.70773316     0.10400
S875        S  0.62964711  0.98602842  0.63663613    -0.33000
S876        S  0.68800248  0.87449294  0.73927498    -0.33000
H877        H  0.67831162  0.88801900  0.77372013     0.28400
H878        H  0.65129246  0.00538851  0.63212290     0.28400
H879        H  0.61504511  0.94726011  0.70021136     0.19000
H880        H  0.69917321  0.90505237  0.66832769     0.19000
C881        C  0.34615871  0.99797218  0.01048199    -0.06900
C882        C  0.35809584  0.98957030  0.04526223    -0.18000
C883        C  0.38381451  0.99092833  0.04865975     0.10300
C884        C  0.39811194  0.00128185  0.01648512    -0.06800
C885        C  0.38608929  0.00944720  0.98158406    -0.18000
C886        C  0.36032683  0.00767592  0.97813174     0.10400
S887        S  0.39682463  0.97998124  0.09515178    -0.33000
S888        S  0.34587013  0.02003010  0.93304675    -0.33000
H889        H  0.36733002  0.01702949  0.91021591     0.28400
H890        H  0.41439704  0.00633084  0.09505476     0.28400
H891        H  0.34723339  0.98200586  0.07013809     0.19000
H892        H  0.39694332  0.01734317  0.95686030     0.19000
C893        C  0.67401147  0.02640881  0.01665122    -0.06900
C894        C  0.68765149  0.99535120  0.01481449    -0.18000
C895        C  0.71341186  0.99527257  0.01156143     0.10300
C896        C  0.72588068  0.02697760  0.00941910    -0.06800
C897        C  0.71233252  0.05799875  0.01155067    -0.18000
C898        C  0.68662642  0.05811116  0.01547033     0.10400
S899        S  0.72923151  0.95397986  0.01179225    -0.33000
S900        S  0.67127245  0.09947623  0.02042462    -0.33000
H901        H  0.65434387  0.08829515  0.04855586     0.28400
H902        H  0.74967430  0.96495656  0.03339270     0.28400
H903        H  0.67816694  0.97089708  0.01584888     0.19000
H904        H  0.72190796  0.08238885  0.01045340     0.19000
C905        C  0.59841831  0.08208009  0.11715293    -0.06900
C906        C  0.59757652  0.06498413  0.15297175    -0.18000
C907        C  0.60143210  0.08225768  0.18766267     0.10300
C908        C  0.60725786  0.11782330  0.18733437    -0.06800
C909        C  0.60673566  0.13560466  0.15201675    -0.18000
C910        C  0.60210533  0.11837501  0.11712569     0.10400
S911        S  0.59813408  0.05697542  0.23118912    -0.33000
S912        S  0.60197125  0.14429475  0.07391246    -0.33000
H913        H  0.57846509  0.13301195  0.06240005     0.28400
H914        H  0.58832611  0.08418006  0.25303261     0.28400
H915        H  0.59397242  0.03757786  0.15422037     0.19000
H916        H  0.61057432  0.16296604  0.15146576     0.19000
C917        C  0.60445279  0.95862506  0.92230118    -0.06900
C918        C  0.60760626  0.97615292  0.88713359    -0.18000
C919        C  0.61145114  0.95871919  0.85244902     0.10300
C920        C  0.61351012  0.92207818  0.85230068    -0.06800
C921        C  0.61040583  0.90438895  0.88740075    -0.18000
C922        C  0.60549188  0.92198353  0.92201134     0.10400
S923        S  0.61196575  0.98576219  0.80989865    -0.33000
S924        S  0.60004045  0.89578362  0.96412068    -0.33000
H925        H  0.57789544  0.91330466  0.97369460     0.28400
H926        H  0.59944418  0.96246996  0.78656870     0.28400
H927        H  0.60666145  0.00408409  0.88625447     0.19000
H928        H  0.61149827  0.87649223  0.88790133     0.19000
C929        C  0.22614815  0.02186575  0.51218261    -0.06900
C930        C  0.21414033  0.00480061  0.48208578    -0.18000
C931        C  0.18838770  0.00551252  0.47882174     0.10300
C932        C  0.17394779  0.02245214  0.50735325    -0.06800
C933        C  0.18608608  0.04016122  0.53704489    -0.18000
C934        C  0.21191082  0.04062936  0.53930301     0.10400
S935        S  0.17546596  0.98578622  0.43647459    -0.33000
S936        S  0.22544331  0.06708474  0.57617353    -0.33000
H937        H  0.24531393  0.07817473  0.55321600     0.28400
H938        H  0.15861282  0.01309128  0.42922744     0.28400
H939        H  0.22494908  0.99096651  0.46063241     0.19000
H940        H  0.17541646  0.05395773  0.55866841     0.19000
C941        C  0.51017850  0.14839745  0.27752491    -0.06900
C942        C  0.52094736  0.17994358  0.26785003    -0.18000
C943        C  0.54658764  0.18397989  0.26854035     0.10300
C944        C  0.56199779  0.15620310  0.28039697    -0.06800
C945        C  0.55102376  0.12546033  0.29288851    -0.18000
C946        C  0.52553146  0.12077169  0.29040353     0.10400
S947        S  0.55865769  0.22532099  0.25516201    -0.33000
S948        S  0.51463733  0.07769802  0.29974246    -0.33000
H949        H  0.49723423  0.07751841  0.26959192     0.28400
H950        H  0.54092350  0.23104779  0.22601147     0.28400
H951        H  0.50925969  0.20155706  0.25909644     0.19000
H952        H  0.56249632  0.10378017  0.30198117     0.19000
C953        C  0.42437672  0.11145615  0.31485637    -0.06900
C954        C  0.40977005  0.08252675  0.30628023    -0.18000
C955        C  0.39812471  0.06343215  0.33522460     0.10300
C956        C  0.40019789  0.07363319  0.37403804    -0.06800
C957        C  0.41329487  0.10344149  0.38285955    -0.18000
C958        C  0.42497689  0.12281485  0.35395524     0.10400
S959        S  0.38190845  0.02521595  0.32072526    -0.33000
S960        S  0.44065300  0.16183131  0.36803521    -0.33000
H961        H  0.43571651  0.15998607  0.40785321     0.28400
H962        H  0.38861152  0.00541095  0.35330512     0.28400
H963        H  0.40736484  0.07367864  0.27718507     0.19000
H964        H  0.41408820  0.11173086  0.41263372     0.19000
C965        C  0.46733045  0.07481719  0.10980096    -0.06900
C966        C  0.48795324  0.08170084  0.13271561    -0.18000
C967        C  0.48569646  0.10111983  0.16669131     0.10300
C968        C  0.46199846  0.11297498  0.17874264    -0.06800
C969        C  0.44151680  0.10685010  0.15492267    -0.18000
C970        C  0.44400299  0.08861678  0.12032121     0.10400
S971        S  0.51313515  0.10875648  0.19471126    -0.33000
S972        S  0.41648017  0.08197980  0.09213321    -0.33000
H973        H  0.42788669  0.08717054  0.05619154     0.28400
H974        H  0.52985494  0.08927196  0.17221937     0.28400
H975        H  0.50582319  0.07128689  0.12411451     0.19000
H976        H  0.42329664  0.11591682  0.16373453     0.19000
C977        C  0.50680266  0.87471469  0.76922909    -0.06900
C978        C  0.51790884  0.90627292  0.76016541    -0.18000
C979        C  0.54361825  0.90974176  0.75976543     0.10300
C980        C  0.55883880  0.88126760  0.77024892    -0.06800
C981        C  0.54782077  0.84978262  0.77974878    -0.18000
C982        C  0.52212568  0.84593889  0.77827835     0.10400
S983        S  0.55631975  0.95124194  0.74758957    -0.33000
S984        S  0.51034120  0.80316537  0.78517621    -0.33000
H985        H  0.49299867  0.80667155  0.75516052     0.28400
H986        H  0.53420805  0.96702961  0.73471398     0.28400
H987        H  0.50633147  0.92867930  0.75421668     0.19000
H988        H  0.55939379  0.82758029  0.78685100     0.19000
C989        C  0.42177045  0.91107740  0.72334501    -0.06900
C990        C  0.40516149  0.93837979  0.73220558    -0.18000
C991        C  0.39317111  0.95765211  0.70325122     0.10300
C992        C  0.39733117  0.94949986  0.66410615    -0.06800
C993        C  0.41270060  0.92136000  0.65501872    -0.18000
C994        C  0.42444741  0.90163324  0.68384035     0.10400
S995        S  0.37349567  0.99308645  0.71834445    -0.33000
S996        S  0.44231323  0.86403105  0.66909038    -0.33000
H997        H  0.44355300  0.87208515  0.62950156     0.28400
H998        H  0.37970682  0.01508001  0.68753797     0.28400
H999        H  0.40117806  0.94530539  0.76165600     0.19000
H1000       H  0.41499317  0.91427309  0.62500966     0.19000
C1001       C  0.45773584  0.90504108  0.85989160    -0.06900
C1002       C  0.48213777  0.91609496  0.86554695    -0.18000
C1003       C  0.48869663  0.93489553  0.89840109     0.10300
C1004       C  0.47055251  0.94219948  0.92658916    -0.06800
C1005       C  0.44641531  0.93015214  0.92154302    -0.18000
C1006       C  0.43976991  0.91188595  0.88849436     0.10400
S1007       S  0.52007636  0.94996941  0.90176650    -0.33000
S1008       S  0.40791600  0.89917180  0.88398414    -0.33000
H1009       H  0.41234548  0.87067950  0.85987774     0.28400
H1010       H  0.52060364  0.95386585  0.94207651     0.28400
H1011       H  0.49593924  0.91136459  0.84345187     0.19000
H1012       H  0.43236036  0.93616766  0.94292454     0.19000
C1013       C  0.17223076  0.49721504  0.52020014    -0.06900
C1014       C  0.18394830  0.48941457  0.55535910    -0.18000
C1015       C  0.20974996  0.48723494  0.55807186     0.10300
C1016       C  0.22439268  0.49385870  0.52501578    -0.06800
C1017       C  0.21257489  0.50077354  0.48966568    -0.18000
C1018       C  0.18677950  0.50202953  0.48678739     0.10400
S1019       S  0.22254048  0.47436783  0.60408292    -0.33000
S1020       S  0.17362319  0.50856095  0.43943039    -0.33000
H1021       H  0.15386964  0.48579855  0.44500560     0.28400
H1022       H  0.24195156  0.45437071  0.58834763     0.28400
H1023       H  0.17289869  0.48500355  0.58100112     0.19000
H1024       H  0.22351308  0.50539305  0.46398695     0.19000
C1025       C  0.51697131  0.37381153  0.26906005    -0.06900
C1026       C  0.52836295  0.40581995  0.27379210    -0.18000
C1027       C  0.55368825  0.40967762  0.26756165     0.10300
C1028       C  0.56849802  0.38037969  0.25877349    -0.06800
C1029       C  0.55725248  0.34830155  0.25455425    -0.18000
C1030       C  0.53169694  0.34475566  0.25923846     0.10400
S1031       S  0.56541267  0.45303040  0.26864343    -0.33000
S1032       S  0.51894526  0.30232508  0.25506037    -0.33000
H1033       H  0.53602211  0.29165086  0.22675712     0.28400
H1034       H  0.58308733  0.44780550  0.23935192     0.28400
H1035       H  0.51729915  0.42843042  0.28072725     0.19000
H1036       H  0.56858923  0.32565218  0.24858590     0.19000
C1037       C  0.45621887  0.29383214  0.25787495    -0.06900
C1038       C  0.45158943  0.27856231  0.22185105    -0.18000
C1039       C  0.44931296  0.24247620  0.21824217     0.10300
C1040       C  0.45157253  0.22120308  0.25136875    -0.06800
C1041       C  0.45733529  0.23640700  0.28676256    -0.18000
C1042       C  0.46023566  0.27195889  0.29023001     0.10400
S1043       S  0.44309431  0.22534124  0.17097626    -0.33000
S1044       S  0.47064504  0.28703997  0.33647413    -0.33000
H1045       H  0.48471416  0.31429884  0.32181177     0.22800
H1046       H  0.43119946  0.19525364  0.18340901     0.28400
H1047       H  0.44905928  0.29486818  0.19663143     0.19000
H1048       H  0.46033980  0.22016900  0.31193358     0.19000
C1049       C  0.43270678  0.40393922  0.32742484    -0.06900
C1050       C  0.41269532  0.42676221  0.31941972    -0.18000
C1051       C  0.39924013  0.44332046  0.34870956     0.10300
C1052       C  0.40475187  0.43626521  0.38775832    -0.06800
C1053       C  0.42403594  0.41297831  0.39632056    -0.18000
C1054       C  0.43776775  0.39644235  0.36704274     0.10400
S1055       S  0.37588576  0.47436650  0.33402728    -0.33000
S1056       S  0.46101711  0.36504461  0.38159835    -0.33000
H1057       H  0.46101069  0.37252477  0.42129464     0.28400
H1058       H  0.38076562  0.49779476  0.36389576     0.28400
H1059       H  0.40680346  0.43195164  0.29023857     0.19000
H1060       H  0.42785506  0.40696228  0.42630893     0.19000
C1061       C  0.50287576  0.64691309  0.77951453    -0.06900
C1062       C  0.51305379  0.65377888  0.74303142    -0.18000
C1063       C  0.53856122  0.65713939  0.73773054     0.10300
C1064       C  0.55452888  0.65310465  0.76985319    -0.06800
C1065       C  0.54431566  0.64668033  0.80634830    -0.18000
C1066       C  0.51881993  0.64374829  0.81169539     0.10400
S1067       S  0.54983319  0.66815098  0.69014195    -0.33000
S1068       S  0.50768928  0.63494685  0.85972521    -0.33000
H1069       H  0.53043546  0.62438557  0.87598529     0.28400
H1070       H  0.52726962  0.66524520  0.67027685     0.28400
H1071       H  0.50082437  0.65701074  0.71853434     0.19000
H1072       H  0.55641285  0.64327403  0.83095069     0.19000
C1073       C  0.44357804  0.72505284  0.78557835    -0.06900
C1074       C  0.44251997  0.74271606  0.82099042    -0.18000
C1075       C  0.44285641  0.77914002  0.82242817     0.10300
C1076       C  0.44365971  0.79832604  0.78772369    -0.06800
C1077       C  0.44489578  0.78065548  0.75260921    -0.18000
C1078       C  0.44571834  0.74475215  0.75117536     0.10400
S1079       S  0.44106483  0.80079887  0.86834849    -0.33000
S1080       S  0.45206351  0.72638136  0.70461451    -0.33000
H1081       H  0.46865367  0.70143285  0.71939131     0.28400
H1082       H  0.44410226  0.77107584  0.89142911     0.28400
H1083       H  0.44107511  0.72798073  0.84746621     0.19000
H1084       H  0.44658751  0.79510375  0.72587784     0.19000
C1085       C  0.42007318  0.61074544  0.72628567    -0.06900
C1086       C  0.40021436  0.58871924  0.73517647    -0.18000
C1087       C  0.38852769  0.56910344  0.70691767     0.10300
C1088       C  0.39558107  0.57253721  0.66793865    -0.06800
C1089       C  0.41440113  0.59540935  0.65834846    -0.18000
C1090       C  0.42658463  0.61461116  0.68661089     0.10400
S1091       S  0.36560082  0.53887847  0.72302711    -0.33000
S1092       S  0.45004902  0.64413436  0.67046516    -0.33000
H1093       H  0.45253712  0.63165362  0.63257100     0.28400
H1094       H  0.37224280  0.51301142  0.69644562     0.28400
H1095       H  0.39326968  0.58626823  0.76418270     0.19000
H1096       H  0.41924147  0.59872385  0.62823885     0.19000
C1097       C  0.34374169  0.52194997  0.02824542    -0.06900
C1098       C  0.35453623  0.48969905  0.03714057    -0.18000
C1099       C  0.38024238  0.48489170  0.03718699     0.10300
C1100       C  0.39562092  0.51279212  0.02770020    -0.06800
C1101       C  0.38486340  0.54510576  0.01925026    -0.18000
C1102       C  0.35920047  0.55007060  0.01970946     0.10400
S1103       S  0.39227417  0.44309361  0.05108869    -0.33000
S1104       S  0.34753355  0.59317930  0.01079821    -0.33000
H1105       H  0.32811045  0.59126204  0.03773090     0.28400
H1106       H  0.41255500  0.45607358  0.07161792     0.28400
H1107       H  0.34284730  0.46803256  0.04408187     0.19000
H1108       H  0.39659232  0.56674879  0.01232517     0.19000
C1109       C  0.47127077  0.44276875  0.11766178    -0.06900
C1110       C  0.47618496  0.45812918  0.15350259    -0.18000
C1111       C  0.47281888  0.44046148  0.18848712     0.10300
C1112       C  0.46385520  0.40629368  0.18833727    -0.06800
C1113       C  0.46051648  0.38990256  0.15277046    -0.18000
C1114       C  0.46397171  0.40759278  0.11760527     0.10400
S1115       S  0.48061221  0.46200644  0.23297881    -0.33000
S1116       S  0.45833541  0.38354217  0.07422281    -0.33000
H1117       H  0.44090461  0.40741979  0.05970318     0.28400
H1118       H  0.49165006  0.49121210  0.21643916     0.28400
H1119       H  0.48245890  0.48449389  0.15425641     0.19000
H1120       H  0.45438532  0.36341206  0.15238439     0.19000
C1121       C  0.44974648  0.61430246  0.86286861    -0.06900
C1122       C  0.46093458  0.58170220  0.85723659    -0.18000
C1123       C  0.46878709  0.56115829  0.88822427     0.10300
C1124       C  0.46437233  0.57233791  0.92647082    -0.06800
C1125       C  0.45404041  0.60558921  0.93211586    -0.18000
C1126       C  0.44678527  0.62664105  0.90081824     0.10400
S1127       S  0.48543556  0.52190165  0.87660147    -0.33000
S1128       S  0.43343558  0.66846834  0.91125269    -0.33000
H1129       H  0.41895702  0.67140923  0.87767930     0.28400
H1130       H  0.50267070  0.52508205  0.90680005     0.28400
H1131       H  0.46435509  0.57260476  0.82812447     0.19000
H1132       H  0.45073366  0.61485565  0.96115302     0.19000
C1133       C  0.67227733  0.51195427  0.00372156    -0.06900
C1134       C  0.68415531  0.51996553  0.03852503    -0.18000
C1135       C  0.70994051  0.52050744  0.04128033     0.10300
C1136       C  0.72450216  0.51214167  0.00862573    -0.06800
C1137       C  0.71262466  0.50450283  0.97366162    -0.18000
C1138       C  0.68672764  0.50435509  0.97077999     0.10400
S1139       S  0.72281196  0.53390058  0.08673094    -0.33000
S1140       S  0.67254998  0.49628296  0.92448748    -0.33000
H1141       H  0.69430096  0.48632255  0.90492166     0.28400
H1142       H  0.74205871  0.55303058  0.07016573     0.28400
H1143       H  0.67322111  0.52607277  0.06389989     0.19000
H1144       H  0.72372692  0.49848109  0.94849955     0.19000
C1145       C  0.60578842  0.44475905  0.09850934    -0.06900
C1146       C  0.63065527  0.43652985  0.10608316    -0.18000
C1147       C  0.63761485  0.41830722  0.13939390     0.10300
C1148       C  0.61922797  0.40813834  0.16602445    -0.06800
C1149       C  0.59420890  0.41510606  0.15737232    -0.18000
C1150       C  0.58729246  0.43336232  0.12403834     0.10400
S1151       S  0.67020598  0.40946325  0.14606206    -0.33000
S1152       S  0.55477869  0.44263707  0.11684517    -0.33000
H1153       H  0.55575778  0.44719855  0.07661413     0.28400
H1154       H  0.66754491  0.38104352  0.17079297     0.28400
H1155       H  0.64486893  0.44521236  0.08630737     0.19000
H1156       H  0.57991592  0.40762207  0.17756450     0.19000
C1157       C  0.59559912  0.57645915  0.91246780    -0.06900
C1158       C  0.60714363  0.60858572  0.91711082    -0.18000
C1159       C  0.61273835  0.62962343  0.88515198     0.10300
C1160       C  0.60721298  0.61810730  0.84775356    -0.06800
C1161       C  0.59466494  0.58694399  0.84315195    -0.18000
C1162       C  0.58830754  0.56651315  0.87490971     0.10400
S1163       S  0.62810009  0.67015081  0.89202208    -0.33000
S1164       S  0.57015003  0.52881869  0.86541971    -0.33000
H1165       H  0.55547722  0.53234759  0.89880088     0.28400
H1166       H  0.62697948  0.67015508  0.93259578     0.28400
H1167       H  0.61270627  0.61662479  0.94566669     0.19000
H1168       H  0.58940813  0.57873475  0.81445085     0.19000
loop_ 
_geom_bond_atom_site_label_1 
_geom_bond_atom_site_label_2 
_geom_bond_distance 
_geom_bond_site_symmetry_2 
_ccdc_geom_bond_type 
O1           Cu9   2.017   1_556  S
O1           C11   1.279       .  A
O2           Cu9   2.008       .  S
O2           C12   1.277       .  A
O3           Cu9   2.000       .  S
O3           C13   1.277       .  A
O4           Cu9   2.003       .  S
O4           C14   1.277       .  A
O5          Cu10   2.025       .  S
O5           C14   1.279   1_556  A
O6          Cu10   2.012       .  S
O6           C13   1.278   1_556  A
O7          Cu10   2.008   1_554  S
O7           C12   1.277       .  A
O8          Cu10   2.011       .  S
O8           C11   1.278       .  A
Cu9         Cu10   2.373   1_554  S
C11        C1157   1.490       .  S
C12        C1145   1.467       .  S
C13        C1133   1.479       .  S
C14          C26   1.471       .  S
O15         Cu23   1.994       .  S
O15          C25   1.275       .  A
O16         Cu23   2.002       .  S
O16          C26   1.277       .  A
O17         Cu23   2.015   1_556  S
O17          C27   1.278       .  A
O18         Cu23   2.022       .  S
O18          C28   1.282       .  A
O19         Cu24   2.024       .  S
O19          C28   1.277       .  A
O20         Cu24   2.016   1_556  S
O20          C27   1.279       .  A
O21         Cu24   2.026   1_556  S
O21          C26   1.279   1_556  A
O22         Cu24   2.019       .  S
O22          C25   1.279       .  A
Cu23        Cu24   2.368       .  S
C25        C1100   1.472       .  S
C27        C1124   1.491       .  S
C28        C1109   1.502       .  S
C29          C30   1.532       .  S
C29          C35   1.540       .  S
C29          C33   1.543       .  S
C29        C1085   1.544       .  S
C30          H37   1.086       .  S
C30          C31   1.367       .  D
C31          C32   1.547       .  S
C31        C1073   1.499       .  S
C32          C36   1.547       .  S
C32          C34   1.533       .  S
C32          H38   1.109       .  S
C33          H39   1.086       .  S
C33          C34   1.368       .  D
C34        C1061   1.485       .  S
C35          H40   1.083       .  S
C35          C36   1.366       .  D
C36        C1121   1.489       .  S
C41          C42   1.533       .  S
C41          C47   1.548       .  S
C41          C45   1.546       .  S
C41        C1049   1.551       .  S
C42          H49   1.086       .  S
C42          C43   1.367       .  D
C43          C44   1.547       .  S
C43        C1037   1.496       .  S
C44          C48   1.540       .  S
C44          C46   1.536       .  S
C44          H50   1.110       .  S
C45          H51   1.086       .  S
C45          C46   1.371       .  D
C46        C1025   1.485       .  S
C47          H52   1.082       .  S
C47          C48   1.367       .  D
C48        C1112   1.497       .  S
N53          N54   1.321       .  A
N53          C57   1.345       .  A
N53         Cu61   2.081       .  S
N54          C55   1.344       .  A
N54         Cu60   2.061       .  S
C55          C56   1.384       .  A
C55          H58   1.082       .  S
C56        C1016   1.481       .  S
C56          C57   1.387       .  A
C57          H59   1.081       .  S
Cu60         N63   2.061       .  S
Cu61         N71   2.082       .  S
Cu62         N64   2.085       .  S
Cu62         N70   2.086       .  S
N63          N64   1.322       .  A
N63          C67   1.344       .  A
N64          C65   1.346       .  A
C65          C66   1.386       .  A
C65          H68   1.082       .  S
C66        C1088   1.479       .  S
C66          C67   1.382       .  A
C67          H69   1.082       .  S
N70          N71   1.323       .  A
N70          C74   1.348       .  A
N71          C72   1.346       .  A
C72          C73   1.386       .  A
C72          H75   1.082       .  S
C73        C1052   1.487       .  S
C73          C74   1.387       .  A
C74          H76   1.082       .  S
C77          C78   1.546       .  S
C77          C83   1.531       .  S
C77          C81   1.539       .  S
C77         C989   1.540       .  S
C78          H85   1.082       .  S
C78          C79   1.367       .  D
C79          C80   1.536       .  S
C79        C1001   1.480       .  S
C80          C84   1.545       .  S
C80          C82   1.537       .  S
C80          H86   1.109       .  S
C81          H87   1.086       .  S
C81          C82   1.366       .  D
C82         C977   1.488       .  S
C83          H88   1.087       .  S
C83          C84   1.367       .  D
C84        C1076   1.490       .  S
C89          C90   1.548       .  S
C89          C95   1.537       .  S
C89          C93   1.537       .  S
C89         C953   1.542       .  S
C90          H97   1.080       .  S
C90          C91   1.366       .  D
C91          C92   1.538       .  S
C91         C968   1.491       .  S
C92          C96   1.541       .  S
C92          C94   1.538       .  S
C92          H98   1.110       .  S
C93          H99   1.086       .  S
C93          C94   1.361       .  D
C94         C941   1.479       .  S
C95         H100   1.086       .  S
C95          C96   1.369       .  D
C96        C1040   1.488       .  S
N101        N102   1.320       .  A
N101        C105   1.342       .  A
N101       Cu109   2.058       .  S
N102        C103   1.344       .  A
N102       Cu108   2.067       .  S
C103        C104   1.385       .  A
C103        H106   1.081       .  S
C104        C929   1.475       .  S
C104        C105   1.382       .  A
C105        H107   1.082       .  S
Cu108       N111   2.068   1_545  S
Cu109       N119   2.058       .  S
Cu110       N112   2.085   1_545  S
Cu110       N118   2.084       .  S
N111        N112   1.323       .  A
N111        C115   1.345       .  A
N112        C113   1.346       .  A
C113        C114   1.386       .  A
C113        H116   1.081       .  S
C114        C992   1.479       .  S
C114        C115   1.382       .  A
C115        H117   1.082       .  S
N118        N119   1.322       .  A
N118        C122   1.347       .  A
N119        C120   1.342       .  A
C120        C121   1.379       .  A
C120        H123   1.082       .  S
C121        C956   1.476       .  S
C121        C122   1.386       .  A
C122        H124   1.082       .  S
O125       Cu133   2.013   1_545  S
O125        C135   1.281       .  A
O126       Cu133   2.012   1_556  S
O126        C136   1.276       .  A
O127       Cu133   2.002   1_545  S
O127        C137   1.277       .  A
O128       Cu133   2.014       .  S
O128        C138   1.278   1_565  A
O129       Cu134   2.004   1_554  S
O129        C138   1.277       .  A
O130       Cu134   1.996       .  S
O130        C137   1.276   1_556  A
O131       Cu134   2.010       .  S
O131        C136   1.280   1_545  A
O132       Cu134   2.018   1_554  S
O132        C135   1.277       .  A
Cu133      Cu134   2.367   1_564  S
C135        C905   1.499       .  S
C136        C917   1.495       .  S
C137        C893   1.473       .  S
C138        C151   1.468       .  S
O139       Cu147   2.016   1_545  S
O139        C149   1.279       .  A
O140       Cu147   2.013   1_556  S
O140        C150   1.278       .  A
O141       Cu147   2.012       .  S
O141        C151   1.278   1_565  A
O142       Cu147   2.000       .  S
O142        C152   1.276   1_565  A
O143       Cu148   2.002       .  S
O143        C152   1.278   1_556  A
O144       Cu148   2.007       .  S
O144        C151   1.278   1_556  A
O145       Cu148   2.007   1_565  S
O145        C150   1.277       .  A
O146       Cu148   2.007   1_554  S
O146        C149   1.276       .  A
Cu147      Cu148   2.376   1_564  S
C149        C965   1.472       .  S
C150       C1004   1.469       .  S
C152        C884   1.477       .  S
C153        C154   1.527       .  S
C153        C159   1.527       .  S
C153        C157   1.552       .  S
C153        C869   1.536       .  S
C154        H161   1.085       .  S
C154        C155   1.367       .  D
C155        C156   1.549       .  S
C155        C857   1.488       .  S
C156        C160   1.550       .  S
C156        C158   1.532       .  S
C156        H162   1.110       .  S
C157        H163   1.084       .  S
C157        C158   1.364       .  D
C158        C980   1.484       .  S
C159        H164   1.085       .  S
C159        C160   1.366       .  D
C160        C920   1.497       .  S
C165        C166   1.536       .  S
C165        C171   1.541       .  S
C165        C169   1.538       .  S
C165        C845   1.537       .  S
C166        H173   1.083       .  S
C166        C167   1.367       .  D
C167        C168   1.547       .  S
C167        C833   1.485       .  S
C168        C172   1.541       .  S
C168        C170   1.537       .  S
C168        H174   1.108       .  S
C169        H175   1.086       .  S
C169        C170   1.367       .  D
C170        C944   1.486       .  S
C171        H176   1.084       .  S
C171        C172   1.360       .  D
C172        C908   1.492       .  S
N177        N178   1.323       .  A
N177        C181   1.346       .  A
N177       Cu185   2.084   1_545  S
N178        C179   1.341       .  A
N178       Cu184   2.056       .  S
C179        C180   1.376       .  A
C179        H182   1.082       .  S
C180        C848   1.468       .  S
C180        C181   1.384       .  A
C181        H183   1.082       .  S
Cu184       N187   2.056       .  S
Cu185       N195   2.084       .  S
Cu186       N188   2.059   1_565  S
Cu186       N194   2.060       .  S
N187        N188   1.319       .  A
N187        C191   1.342       .  A
N188        C189   1.343       .  A
C189        C190   1.383       .  A
C189        H192   1.082   1_545  S
C190        C821   1.473       .  S
C190        C191   1.383       .  A
C191        H193   1.082       .  S
N194        N195   1.322       .  A
N194        C198   1.341       .  A
N195        C196   1.346       .  A
C196        C197   1.389       .  A
C196        H199   1.081       .  S
C197        C872   1.484       .  S
C197        C198   1.382       .  A
C198        H200   1.082       .  S
C201        C202   1.536       .  S
C201        C207   1.534       .  S
C201        C205   1.548       .  S
C201        C809   1.541       .  S
C202        H209   1.085       .  S
C202        C203   1.368       .  D
C203        C204   1.542       .  S
C203       C1160   1.484       .  S
C204        C208   1.536       .  S
C204        C206   1.538       .  S
C204        H210   1.110       .  S
C205        H211   1.084       .  S
C205        C206   1.366       .  D
C206       C1064   1.484       .  S
C207        H212   1.086       .  S
C207        C208   1.366       .  D
C208        C860   1.492       .  S
C213        C214   1.551       .  S
C213        C219   1.538       .  S
C213        C217   1.535       .  S
C213        C797   1.541       .  S
C214        H221   1.079       .  S
C214        C215   1.370       .  D
C215        C216   1.535       .  S
C215       C1148   1.485       .  S
C216        C220   1.536       .  S
C216        C218   1.534       .  S
C216        H222   1.111       .  S
C217        H223   1.086       .  S
C217        C218   1.360       .  D
C218       C1028   1.478       .  S
C219        H224   1.086       .  S
C219        C220   1.367       .  D
C220        C836   1.483       .  S
N225        N226   1.322       .  A
N225        C229   1.348       .  A
N225       Cu233   2.088       .  S
N226        C227   1.343       .  A
N226       Cu232   2.060       .  S
C227        C228   1.380       .  A
C227        H230   1.082       .  S
C228        C800   1.478       .  S
C228        C229   1.387       .  A
C229        H231   1.082       .  S
Cu232       N235   2.060       .  S
Cu233       N243   2.089       .  S
Cu234       N236   2.079       .  S
Cu234       N242   2.079       .  S
N235        N236   1.320       .  A
N235        C239   1.342       .  A
N236        C237   1.347       .  A
C237        C238   1.389       .  A
C237        H240   1.081       .  S
C238        C785   1.483       .  S
C238        C239   1.383       .  A
C239        H241   1.082       .  S
N242        N243   1.324       .  A
N242        C246   1.344       .  A
N243        C244   1.347       .  A
C244        C245   1.389       .  A
C244        H247   1.082       .  S
C245        C812   1.488       .  S
C245        C246   1.385       .  A
C246        H248   1.082       .  S
O249       Cu257   2.017       .  S
O249        C259   1.278       .  A
O250       Cu257   2.001       .  S
O250        C260   1.277       .  A
O251       Cu257   2.014       .  S
O251        C261   1.279       .  A
O252       Cu257   2.020       .  S
O252        C262   1.278       .  A
O253       Cu258   2.005       .  S
O253        C262   1.279       .  A
O254       Cu258   2.015       .  S
O254        C261   1.278       .  A
O255       Cu258   2.008       .  S
O255        C260   1.278       .  A
O256       Cu258   2.018       .  S
O256        C259   1.278       .  A
Cu257      Cu258   2.369       .  S
C259        C273   1.474       .  S
C260       C1013   1.474       .  S
C261        C773   1.497       .  S
C262        C761   1.485       .  S
O263       Cu271   2.015   1_455  S
O263        C273   1.278       .  A
O264       Cu271   2.009       .  S
O264        C274   1.278       .  A
O265       Cu271   2.005       .  S
O265        C275   1.276       .  A
O266       Cu271   2.003       .  S
O266        C276   1.276       .  A
O267       Cu272   2.012       .  S
O267        C276   1.277       .  A
O268       Cu272   2.012       .  S
O268        C275   1.278       .  A
O269       Cu272   2.011       .  S
O269        C274   1.278       .  A
O270       Cu272   2.020   1_455  S
O270        C273   1.279       .  A
Cu271      Cu272   2.375       .  S
C274        C788   1.481       .  S
C275        C740   1.468       .  S
C276        C752   1.467       .  S
C277        C278   1.530       .  S
C277        C283   1.538       .  S
C277        C281   1.545       .  S
C277        C725   1.538       .  S
C278        H285   1.086       .  S
C278        C279   1.363       .  D
C279        C280   1.536       .  S
C279        C749   1.476       .  S
C280        C284   1.542       .  S
C280        C282   1.537       .  S
C280        H286   1.108       .  S
C281        H287   1.085       .  S
C281        C282   1.367       .  D
C282        C701   1.488   1_655  S
C283        H288   1.083       .  S
C283        C284   1.371       .  D
C284        C713   1.491       .  S
C289        C290   1.550       .  S
C289        C295   1.538       .  S
C289        C293   1.539       .  S
C289        C689   1.540       .  S
C290        H297   1.081       .  S
C290        C291   1.368       .  D
C291        C292   1.534       .  S
C291        C737   1.484       .  S
C292        C296   1.537       .  S
C292        C294   1.531       .  S
C292        H298   1.111       .  S
C293        H299   1.086       .  S
C293        C294   1.361       .  D
C294        C665   1.478   1_655  S
C295        H300   1.086       .  S
C295        C296   1.366       .  D
C296        C677   1.482       .  S
N301        N302   1.324       .  A
N301        C305   1.343       .  A
N301       Cu309   2.068       .  S
N302        C303   1.348       .  A
N302       Cu308   2.086       .  S
C303        C304   1.385       .  A
C303        H306   1.082       .  S
C304        C692   1.476       .  S
C304        C305   1.380       .  A
C305        H307   1.082       .  S
Cu308       N311   2.086   1_554  S
Cu309       N319   2.067       .  S
Cu310       N312   2.067       .  S
Cu310       N318   2.066       .  S
N311        N312   1.321       .  A
N311        C315   1.347       .  A
N312        C313   1.342       .  A
C313        C314   1.385       .  A
C313        H316   1.081       .  S
C314        C728   1.489       .  S
C314        C315   1.391       .  A
C315        H317   1.082       .  S
N318        N319   1.320   1_556  A
N318        C322   1.343       .  A
N319        C320   1.345       .  A
C320        C321   1.387       .  A
C320        H323   1.081       .  S
C321       C1136   1.481       .  S
C321        C322   1.384   1_554  A
C322        H324   1.082       .  S
C325        C326   1.543       .  S
C325        C331   1.532       .  S
C325        C329   1.549       .  S
C325        C641   1.542       .  S
C326        H333   1.082       .  S
C326        C327   1.360       .  D
C327        C328   1.540       .  S
C327        C716   1.491       .  S
C328        C332   1.545       .  S
C328        C330   1.532       .  S
C328        H334   1.111       .  S
C329        H335   1.086       .  S
C329        C330   1.368       .  D
C330        C629   1.486   1_655  S
C331        H336   1.086       .  S
C331        C332   1.364       .  D
C332        C653   1.484       .  S
C337        C338   1.531       .  S
C337        C343   1.549       .  S
C337        C341   1.539       .  S
C337        C605   1.537       .  S
C338        H345   1.086       .  S
C338        C339   1.362       .  D
C339        C340   1.546       .  S
C339        C680   1.486       .  S
C340        C344   1.536       .  S
C340        C342   1.539       .  S
C340        H346   1.110       .  S
C341        H347   1.084       .  S
C341        C342   1.364       .  D
C342        C593   1.484   1_655  S
C343        H348   1.080       .  S
C343        C344   1.367       .  D
C344        C620   1.493       .  S
N349        N350   1.322   1_545  A
N349        C353   1.346   1_545  A
N349       Cu357   2.076   1_556  S
N350        C351   1.342       .  A
N350       Cu356   2.062   1_565  S
C351        C352   1.380       .  A
C351        H354   1.082       .  S
C352        C644   1.474       .  S
C352        C353   1.384       .  A
C353        H355   1.081       .  S
Cu356       N359   2.062       .  S
Cu357       N367   2.076       .  S
Cu358       N360   2.055       .  S
Cu358       N366   2.056       .  S
N359        N360   1.321   1_556  A
N359        C363   1.344       .  A
N360        C361   1.341       .  A
C361        C362   1.379       .  A
C361        H364   1.082       .  S
C362        C896   1.468       .  S
C362        C363   1.382   1_554  A
C363        H365   1.082   1_545  S
N366        N367   1.322       .  A
N366        C370   1.342       .  A
N367        C368   1.344       .  A
C368        C369   1.383       .  A
C368        H371   1.081       .  S
C369        C608   1.470       .  S
C369        C370   1.379       .  A
C370        H372   1.083       .  S
O373       Cu381   2.005   1_545  S
O373        C383   1.279       .  A
O374       Cu381   2.004       .  S
O374        C384   1.278       .  A
O375       Cu381   2.013       .  S
O375        C385   1.277   1_565  A
O376       Cu381   2.002       .  S
O376        C386   1.277   1_565  A
O377       Cu382   2.003       .  S
O377        C386   1.278       .  A
O378       Cu382   2.014       .  S
O378        C385   1.279       .  A
O379       Cu382   2.003       .  S
O379        C384   1.276   1_545  A
O380       Cu382   2.003       .  S
O380        C383   1.275       .  A
Cu381      Cu382   2.368   1_565  S
C383        C569   1.481       .  S
C384        C581   1.490       .  S
C385        C400   1.471       .  S
C386        C932   1.482       .  S
O387       Cu395   2.003   1_545  S
O387        C397   1.279       .  A
O388       Cu395   2.002       .  S
O388        C398   1.276       .  A
O389       Cu395   2.016       .  S
O389        C399   1.279   1_565  A
O390       Cu395   2.028   1_455  S
O390        C400   1.280   1_565  A
O391       Cu396   1.999   1_455  S
O391        C400   1.275       .  A
O392       Cu396   1.989       .  S
O392        C399   1.275       .  A
O393       Cu396   2.034       .  S
O393        C398   1.282   1_545  A
O394       Cu396   2.032       .  S
O394        C397   1.280       .  A
Cu395      Cu396   2.369   1_565  S
C397        C617   1.501       .  S
C398        C656   1.490       .  S
C399        C824   1.471       .  S
C401        C402   1.534       .  S
C401        C407   1.548       .  S
C401        C405   1.544       .  S
C401        C560   1.545       .  S
C402        H409   1.086       .  S
C402        C403   1.363       .  D
C403        C404   1.545       .  S
C403        C545   1.486       .  S
C404        C408   1.540       .  S
C404        C406   1.538       .  S
C404        H410   1.110       .  S
C405        H411   1.085       .  S
C405        C406   1.369       .  D
C406        C704   1.489       .  S
C407        H412   1.079       .  S
C407        C408   1.366       .  D
C408        C776   1.491       .  S
C413        C414   1.526       .  S
C413        C419   1.537       .  S
C413        C417   1.547       .  S
C413        C533   1.539       .  S
C414        H421   1.087       .  S
C414        C415   1.366       .  D
C415        C416   1.551       .  S
C415        C524   1.497       .  S
C416        C420   1.543       .  S
C416        C418   1.542       .  S
C416        H422   1.108       .  S
C417        H423   1.084       .  S
C417        C418   1.365       .  D
C418        C668   1.491       .  S
C419        H424   1.085       .  S
C419        C420   1.367       .  D
C420        C764   1.488       .  S
N425        N426   1.321       .  A
N425        C429   1.345   1_554  A
N425       Cu433   2.073   1_554  S
N426        C427   1.343       .  A
N426       Cu432   2.062       .  S
C427        C428   1.382       .  A
C427        H430   1.082       .  S
C428       C1097   1.477       .  S
C428        C429   1.385   1_554  A
C429        H431   1.082       .  S
Cu432       N435   2.062       .  S
Cu433       N443   2.074       .  S
Cu434       N436   2.084       .  S
Cu434       N442   2.084   1_554  S
N435        N436   1.321       .  A
N435        C439   1.342       .  A
N436        C437   1.347       .  A
C437        C438   1.389       .  A
C437        H440   1.081       .  S
C438        C536   1.484       .  S
C438        C439   1.383       .  A
C439        H441   1.082       .  S
N442        N443   1.324       .  A
N442        C446   1.347       .  A
N443        C444   1.345       .  A
C444        C445   1.382       .  A
C444        H447   1.082       .  S
C445        C557   1.479       .  S
C445        C446   1.384       .  A
C446        H448   1.082       .  S
C449        C450   1.531       .  S
C449        C455   1.531       .  S
C449        C453   1.549       .  S
C449        C509   1.537       .  S
C450        H457   1.086       .  S
C450        C451   1.366       .  D
C451        C452   1.548       .  S
C451        C584   1.486       .  S
C452        C456   1.541       .  S
C452        C454   1.537       .  S
C452        H458   1.107       .  S
C453        H459   1.082       .  S
C453        C454   1.368       .  D
C454        C632   1.493       .  S
C455        H460   1.087       .  S
C455        C456   1.363       .  D
C456        C548   1.482       .  S
C461        C462   1.533       .  S
C461        C467   1.547       .  S
C461        C465   1.543       .  S
C461        C500   1.538       .  S
C462        H469   1.086       .  S
C462        C463   1.363       .  D
C463        C464   1.534       .  S
C463        C572   1.478       .  S
C464        C468   1.540       .  S
C464        C466   1.535       .  S
C464        H470   1.108       .  S
C465        H471   1.086       .  S
C465        C466   1.367       .  D
C466        C596   1.483       .  S
C467        H472   1.081       .  S
C467        C468   1.365       .  D
C468        C521   1.494       .  S
N473        N474   1.320   1_544  A
N473        C477   1.341       .  A
N473       Cu481   2.053       .  S
N474        C475   1.344       .  A
N474       Cu480   2.068       .  S
C475        C476   1.384   1_556  A
C475        H478   1.081       .  S
C476        C881   1.473       .  S
C476        C477   1.380   1_565  A
C477        H479   1.082       .  S
Cu480       N483   2.069       .  S
Cu481       N491   2.052       .  S
Cu482       N484   2.072   1_544  S
Cu482       N490   2.072       .  S
N483        N484   1.322       .  A
N483        C487   1.344       .  A
N484        C485   1.343       .  A
C485        C486   1.386       .  A
C485        H488   1.081       .  S
C486        C512   1.483       .  S
C486        C487   1.385       .  A
C487        H489   1.082       .  S
N490        N491   1.320       .  A
N490        C494   1.345       .  A
N491        C492   1.340       .  A
C492        C493   1.380       .  A
C492        H495   1.082       .  S
C493        C497   1.474       .  S
C493        C494   1.386       .  A
C494        H496   1.082       .  S
C497        C498   1.397       .  A
C497        C502   1.408       .  A
C498        C499   1.400       .  A
C498        H507   1.082       .  S
C499        C500   1.425       .  A
C499        S503   1.809       .  S
C500        C501   1.412       .  A
C501        C502   1.400       .  A
C501        H508   1.073       .  S
C502        S504   1.810       .  S
S503        H506   1.406       .  S
S504        H505   1.406       .  S
C509        C510   1.412       .  A
C509        C514   1.422       .  A
C510        C511   1.396       .  A
C510        H519   1.078       .  S
C511        C512   1.411       .  A
C511        S515   1.804       .  S
C512        C513   1.403       .  A
C513        C514   1.404       .  A
C513        H520   1.082       .  S
C514        S516   1.810       .  S
S515        H518   1.407       .  S
S516        H517   1.407       .  S
C521        C522   1.406       .  A
C521        C526   1.418       .  A
C522        C523   1.410       .  A
C522        H531   1.083       .  S
C523        C524   1.415       .  A
C523        S527   1.797       .  S
C524        C525   1.404       .  A
C525        C526   1.393       .  A
C525        H532   1.084       .  S
C526        S528   1.804       .  S
S527        H530   1.406       .  S
S528        H529   1.403       .  S
C533        C534   1.413       .  A
C533        C538   1.423       .  A
C534        C535   1.397       .  A
C534        H543   1.081       .  S
C535        C536   1.410       .  A
C535        S539   1.803       .  S
C536        C537   1.404       .  A
C537        C538   1.401       .  A
C537        H544   1.083       .  S
C538        S540   1.805       .  S
S539        H542   1.407       .  S
S540        H541   1.403       .  S
C545        C546   1.405       .  A
C545        C550   1.419       .  A
C546        C547   1.406       .  A
C546        H555   1.084       .  S
C547        C548   1.414       .  A
C547        S551   1.805       .  S
C548        C549   1.400       .  A
C549        C550   1.397       .  A
C549        H556   1.085       .  S
C550        S552   1.805       .  S
S551        H554   1.403       .  S
S552        H553   1.392       .  S
C557        C558   1.398       .  A
C557        C562   1.408       .  A
C558        C559   1.405       .  A
C558        H567   1.083       .  S
C559        C560   1.426       .  A
C559        S563   1.809       .  S
C560        C561   1.414       .  A
C561        C562   1.399       .  A
C561        H568   1.073       .  S
C562        S564   1.804       .  S
S563        H566   1.406       .  S
S564        H565   1.407       .  S
C569        C570   1.401       .  A
C569        C574   1.418       .  A
C570        C571   1.398       .  A
C570        H579   1.083       .  S
C571        C572   1.411       .  A
C571        S575   1.801       .  S
C572        C573   1.398       .  A
C573        C574   1.401       .  A
C573        H580   1.084       .  S
C574        S576   1.799       .  S
S575        H578   1.406       .  S
S576        H577   1.407       .  S
C581        C582   1.410       .  A
C581        C586   1.418       .  A
C582        C583   1.403       .  A
C582        H591   1.082       .  S
C583        C584   1.406       .  A
C583        S587   1.803       .  S
C584        C585   1.405       .  A
C585        C586   1.401       .  A
C585        H592   1.082       .  S
C586        S588   1.811   1_565  S
S587        H590   1.406       .  S
S588        H589   1.407       .  S
C593        C594   1.401       .  A
C593        C598   1.416       .  A
C594        C595   1.394       .  A
C594        H603   1.082       .  S
C595        C596   1.407       .  A
C595        S599   1.794       .  S
C596        C597   1.403       .  A
C597        C598   1.400       .  A
C597        H604   1.082       .  S
C598        S600   1.807       .  S
S599        H602   1.407       .  S
S600        H601   1.407       .  S
C605        C606   1.412       .  A
C605        C610   1.426       .  A
C606        C607   1.397       .  A
C606        H615   1.075       .  S
C607        C608   1.407       .  A
C607        S611   1.805       .  S
C608        C609   1.395       .  A
C609        C610   1.399       .  A
C609        H616   1.083       .  S
C610        S612   1.809       .  S
S611        H614   1.406       .  S
S612        H613   1.406       .  S
C617        C618   1.408       .  A
C617        C622   1.422       .  A
C618        C619   1.400       .  A
C618        H627   1.081       .  S
C619        C620   1.415       .  A
C619        S623   1.810       .  S
C620        C621   1.402       .  A
C621        C622   1.408       .  A
C621        H628   1.083       .  S
C622        S624   1.799       .  S
S623        H626   1.406       .  S
S624        H625   1.408       .  S
C629        C630   1.401       .  A
C629        C634   1.411       .  A
C630        C631   1.397       .  A
C630        H639   1.081       .  S
C631        C632   1.416       .  A
C631        S635   1.803       .  S
C632        C633   1.408       .  A
C633        C634   1.402       .  A
C633        H640   1.082       .  S
C634        S636   1.805       .  S
S635        H638   1.407       .  S
S636        H637   1.407       .  S
C641        C642   1.414       .  A
C641        C646   1.426       .  A
C642        C643   1.393       .  A
C642        H651   1.078       .  S
C643        C644   1.406       .  A
C643        S647   1.806       .  S
C644        C645   1.398       .  A
C645        C646   1.406       .  A
C645        H652   1.082       .  S
C646        S648   1.812       .  S
S647        H650   1.407       .  S
S648        H649   1.406   1_565  S
C653        C654   1.405       .  A
C653        C658   1.408       .  A
C654        C655   1.400       .  A
C654        H663   1.085       .  S
C655        C656   1.413       .  A
C655        S659   1.802       .  S
C656        C657   1.411       .  A
C657        C658   1.404       .  A
C657        H664   1.084       .  S
C658        S660   1.804       .  S
S659        H662   1.408   1_655  S
S660        H661   1.405       .  S
C665        C666   1.399       .  A
C665        C670   1.413       .  A
C666        C667   1.395       .  A
C666        H675   1.084       .  S
C667        C668   1.409       .  A
C667        S671   1.785       .  S
C668        C669   1.406       .  A
C669        C670   1.396       .  A
C669        H676   1.082       .  S
C670        S672   1.805       .  S
S671        H674   1.405       .  S
S672        H673   1.406   1_455  S
C677        C678   1.399       .  A
C677        C682   1.413       .  A
C678        C679   1.395       .  A
C678        H687   1.085       .  S
C679        C680   1.418       .  A
C679        S683   1.803       .  S
C680        C681   1.405       .  A
C681        C682   1.407       .  A
C681        H688   1.084       .  S
C682        S684   1.803       .  S
S683        H686   1.392       .  S
S684        H685   1.402       .  S
C689        C690   1.412       .  A
C689        C694   1.427       .  A
C690        C691   1.398       .  A
C690        H699   1.077       .  S
C691        C692   1.408       .  A
C691        S695   1.804       .  S
C692        C693   1.397       .  A
C693        C694   1.403       .  A
C693        H700   1.084       .  S
C694        S696   1.812       .  S
S695        H698   1.407       .  S
S696        H697   1.407       .  S
C701        C702   1.404       .  A
C701        C706   1.412       .  A
C702        C703   1.397       .  A
C702        H711   1.084       .  S
C703        C704   1.418       .  A
C703        S707   1.802       .  S
C704        C705   1.403       .  A
C705        C706   1.396       .  A
C705        H712   1.082       .  S
C706        S708   1.798       .  S
S707        H710   1.394       .  S
S708        H709   1.405   1_455  S
C713        C714   1.401       .  A
C713        C718   1.417       .  A
C714        C715   1.390       .  A
C714        H723   1.084       .  S
C715        C716   1.421       .  A
C715        S719   1.805       .  S
C716        C717   1.404       .  A
C717        C718   1.407       .  A
C717        H724   1.083       .  S
C718        S720   1.800       .  S
S719        H722   1.396       .  S
S720        H721   1.401       .  S
C725        C726   1.412       .  A
C725        C730   1.422       .  A
C726        C727   1.399       .  A
C726        H735   1.083       .  S
C727        C728   1.412       .  A
C727        S731   1.802       .  S
C728        C729   1.405       .  A
C729        C730   1.400       .  A
C729        H736   1.083       .  S
C730        S732   1.804       .  S
S731        H734   1.407       .  S
S732        H733   1.406       .  S
C737        C738   1.408       .  A
C737        C742   1.413       .  A
C738        C739   1.400       .  A
C738        H747   1.083       .  S
C739        C740   1.409       .  A
C739        S743   1.806   1_655  S
C740        C741   1.402       .  A
C741        C742   1.398       .  A
C741        H748   1.084       .  S
C742        S744   1.804       .  S
S743        H746   1.405       .  S
S744        H745   1.405       .  S
C749        C750   1.405       .  A
C749        C754   1.414       .  A
C750        C751   1.399       .  A
C750        H759   1.084       .  S
C751        C752   1.409       .  A
C751        S755   1.805   1_655  S
C752        C753   1.402       .  A
C753        C754   1.399       .  A
C753        H760   1.085       .  S
C754        S756   1.808       .  S
S755        H758   1.406       .  S
S756        H757   1.401       .  S
C761        C762   1.402       .  A
C761        C766   1.418       .  A
C762        C763   1.399       .  A
C762        H771   1.083       .  S
C763        C764   1.413       .  A
C763        S767   1.804       .  S
C764        C765   1.402       .  A
C765        C766   1.405       .  A
C765        H772   1.082       .  S
C766        S768   1.802       .  S
S767        H770   1.407       .  S
S768        H769   1.407       .  S
C773        C774   1.414       .  A
C773        C778   1.418       .  A
C774        C775   1.411       .  A
C774        H783   1.082       .  S
C775        C776   1.406       .  A
C775        S779   1.805       .  S
C776        C777   1.402       .  A
C777        C778   1.395       .  A
C777        H784   1.079       .  S
C778        S780   1.803       .  S
S779        H782   1.407       .  S
S780        H781   1.408       .  S
C785        C786   1.405       .  A
C785        C790   1.415       .  A
C786        C787   1.399       .  A
C786        H795   1.084       .  S
C787        C788   1.415       .  A
C787        S791   1.804       .  S
C788        C789   1.404       .  A
C789        C790   1.399       .  A
C789        H796   1.084       .  S
C790        S792   1.802       .  S
S791        H794   1.404       .  S
S792        H793   1.407       .  S
C797        C798   1.413       .  A
C797        C802   1.428       .  A
C798        C799   1.400       .  A
C798        H807   1.073       .  S
C799        C800   1.409       .  A
C799        S803   1.805       .  S
C800        C801   1.397       .  A
C801        C802   1.403       .  A
C801        H808   1.082       .  S
C802        S804   1.813       .  S
S803        H806   1.407       .  S
S804        H805   1.406       .  S
C809        C810   1.413       .  A
C809        C814   1.424       .  A
C810        C811   1.399       .  A
C810        H819   1.081       .  S
C811        C812   1.411       .  A
C811        S815   1.803       .  S
C812        C813   1.404       .  A
C813        C814   1.403       .  A
C813        H820   1.083       .  S
C814        S816   1.804       .  S
S815        H818   1.407       .  S
S816        H817   1.404       .  S
C821        C822   1.403   1_545  A
C821        C826   1.412       .  A
C822        C823   1.398       .  A
C822        H831   1.084       .  S
C823        C824   1.412   1_565  A
C823        S827   1.802       .  S
C824        C825   1.403       .  A
C825        C826   1.396       .  A
C825        H832   1.084       .  S
C826        S828   1.803       .  S
S827        H830   1.406       .  S
S828        H829   1.407       .  S
C833        C834   1.403       .  A
C833        C838   1.414       .  A
C834        C835   1.406       .  A
C834        H843   1.084       .  S
C835        C836   1.412       .  A
C835        S839   1.798       .  S
C836        C837   1.399       .  A
C837        C838   1.398       .  A
C837        H844   1.083       .  S
C838        S840   1.806       .  S
S839        H842   1.404       .  S
S840        H841   1.407       .  S
C845        C846   1.416       .  A
C845        C850   1.424       .  A
C846        C847   1.395       .  A
C846        H855   1.079       .  S
C847        C848   1.404       .  A
C847        S851   1.804       .  S
C848        C849   1.397       .  A
C849        C850   1.398       .  A
C849        H856   1.085       .  S
C850        S852   1.797       .  S
S851        H854   1.406       .  S
S852        H853   1.404       .  S
C857        C858   1.402       .  A
C857        C862   1.413       .  A
C858        C859   1.391       .  A
C858        H867   1.085       .  S
C859        C860   1.414       .  A
C859        S863   1.800       .  S
C860        C861   1.408       .  A
C861        C862   1.410       .  A
C861        H868   1.082       .  S
C862        S864   1.802       .  S
S863        H866   1.395       .  S
S864        H865   1.405       .  S
C869        C870   1.412       .  A
C869        C874   1.423       .  A
C870        C871   1.396       .  A
C870        H879   1.081       .  S
C871        C872   1.411       .  A
C871        S875   1.802       .  S
C872        C873   1.404       .  A
C873        C874   1.400       .  A
C873        H880   1.084       .  S
C874        S876   1.805       .  S
S875        H878   1.407   1_565  S
S876        H877   1.403       .  S
C881        C882   1.402       .  A
C881        C886   1.410   1_564  A
C882        C883   1.397       .  A
C882        H891   1.084       .  S
C883        C884   1.416   1_565  A
C883        S887   1.804       .  S
C884        C885   1.405   1_554  A
C885        C886   1.400       .  A
C885        H892   1.083       .  S
C886        S888   1.806       .  S
S887        H890   1.404   1_565  S
S888        H889   1.407       .  S
C893        C894   1.404   1_545  A
C893        C898   1.414       .  A
C894        C895   1.397       .  A
C894        H903   1.084       .  S
C895        C896   1.411   1_565  A
C895        S899   1.804       .  S
C896        C897   1.401       .  A
C897        C898   1.396       .  A
C897        H904   1.084       .  S
C898        S900   1.803       .  S
S899        H902   1.406       .  S
S900        H901   1.407       .  S
C905        C906   1.405       .  A
C905        C910   1.423       .  A
C906        C907   1.395       .  A
C906        H915   1.083       .  S
C907        C908   1.418       .  A
C907        S911   1.804       .  S
C908        C909   1.401       .  A
C909        C910   1.408       .  A
C909        H916   1.083       .  S
C910        S912   1.799       .  S
S911        H914   1.399       .  S
S912        H913   1.408       .  S
C917        C918   1.404       .  A
C917        C922   1.420       .  A
C918        C919   1.395       .  A
C918        H927   1.083   1_565  S
C919        C920   1.423       .  A
C919        S923   1.805       .  S
C920        C921   1.404       .  A
C921        C922   1.405       .  A
C921        H928   1.082       .  S
C922        S924   1.800       .  S
S923        H926   1.396       .  S
S924        H925   1.408       .  S
C929        C930   1.401       .  A
C929        C934   1.412       .  A
C930        C931   1.396       .  A
C930        H939   1.084   1_545  S
C931        C932   1.417       .  A
C931        S935   1.803   1_545  S
C932        C933   1.407       .  A
C933        C934   1.398       .  A
C933        H940   1.083       .  S
C934        S936   1.803       .  S
S935        H938   1.408   1_565  S
S936        H937   1.407       .  S
C941        C942   1.401       .  A
C941        C946   1.416       .  A
C942        C943   1.397       .  A
C942        H951   1.084       .  S
C943        C944   1.411       .  A
C943        S947   1.797       .  S
C944        C945   1.405       .  A
C945        C946   1.395       .  A
C945        H952   1.083       .  S
C946        S948   1.806       .  S
S947        H950   1.407       .  S
S948        H949   1.406       .  S
C953        C954   1.413       .  A
C953        C958   1.426       .  A
C954        C955   1.398       .  A
C954        H963   1.074       .  S
C955        C956   1.408       .  A
C955        S959   1.805       .  S
C956        C957   1.398       .  A
C957        C958   1.404       .  A
C957        H964   1.083       .  S
C958        S960   1.812       .  S
S959        H962   1.407       .  S
S960        H961   1.406       .  S
C965        C966   1.398       .  A
C965        C970   1.411       .  A
C966        C967   1.404       .  A
C966        H975   1.084       .  S
C967        C968   1.418       .  A
C967        S971   1.801       .  S
C968        C969   1.404       .  A
C969        C970   1.399       .  A
C969        H976   1.085       .  S
C970        S972   1.802       .  S
S971        H974   1.407       .  S
S972        H973   1.404       .  S
C977        C978   1.404       .  A
C977        C982   1.414       .  A
C978        C979   1.398       .  A
C978        H987   1.082       .  S
C979        C980   1.413       .  A
C979        S983   1.806       .  S
C980        C981   1.403       .  A
C981        C982   1.400       .  A
C981        H988   1.084       .  S
C982        S984   1.799       .  S
S983        H986   1.407       .  S
S984        H985   1.405       .  S
C989        C990   1.413       .  A
C989        C994   1.425       .  A
C990        C991   1.401       .  A
C990        H999   1.077       .  S
C991        C992   1.411       .  A
C991        S995   1.804       .  S
C992        C993   1.398       .  A
C993        C994   1.401       .  A
C993       H1000   1.083       .  S
C994        S996   1.812       .  S
S995        H998   1.406   1_565  S
S996        H997   1.407       .  S
C1001      C1002   1.406       .  A
C1001      C1006   1.410       .  A
C1002      C1003   1.402       .  A
C1002      H1011   1.083       .  S
C1003      C1004   1.410       .  A
C1003      S1007   1.805       .  S
C1004      C1005   1.403       .  A
C1005      C1006   1.398       .  A
C1005      H1012   1.084       .  S
C1006      S1008   1.804       .  S
S1007      H1010   1.405       .  S
S1008      H1009   1.405       .  S
C1013      C1014   1.403       .  A
C1013      C1018   1.412       .  A
C1014      C1015   1.399       .  A
C1014      H1023   1.084       .  S
C1015      C1016   1.416       .  A
C1015      S1019   1.803       .  S
C1016      C1017   1.404       .  A
C1017      C1018   1.398       .  A
C1017      H1024   1.083       .  S
C1018      S1020   1.803       .  S
S1019      H1022   1.407       .  S
S1020      H1021   1.407       .  S
C1025      C1026   1.403       .  A
C1025      C1030   1.412       .  A
C1026      C1027   1.396       .  A
C1026      H1035   1.082       .  S
C1027      C1028   1.414       .  A
C1027      S1031   1.804       .  S
C1028      C1029   1.400       .  A
C1029      C1030   1.399       .  A
C1029      H1036   1.084       .  S
C1030      S1032   1.798       .  S
S1031      H1034   1.407       .  S
S1032      H1033   1.406       .  S
C1037      C1038   1.407       .  A
C1037      C1042   1.417       .  A
C1038      C1039   1.412       .  A
C1038      H1047   1.083       .  S
C1039      C1040   1.414       .  A
C1039      S1043   1.803       .  S
C1040      C1041   1.400       .  A
C1041      C1042   1.395       .  A
C1041      H1048   1.084       .  S
C1042      S1044   1.801       .  S
S1043      H1046   1.405       .  S
S1044      H1045   1.403       .  S
C1049      C1050   1.414       .  A
C1049      C1054   1.427       .  A
C1050      C1051   1.401       .  A
C1050      H1059   1.077       .  S
C1051      C1052   1.410       .  A
C1051      S1055   1.803       .  S
C1052      C1053   1.400       .  A
C1053      C1054   1.408       .  A
C1053      H1060   1.083       .  S
C1054      S1056   1.807       .  S
S1055      H1058   1.407       .  S
S1056      H1057   1.406       .  S
C1061      C1062   1.404       .  A
C1061      C1066   1.413       .  A
C1062      C1063   1.398       .  A
C1062      H1071   1.081       .  S
C1063      C1064   1.415       .  A
C1063      S1067   1.808       .  S
C1064      C1065   1.402       .  A
C1065      C1066   1.396       .  A
C1065      H1072   1.081       .  S
C1066      S1068   1.802       .  S
S1067      H1070   1.407       .  S
S1068      H1069   1.407       .  S
C1073      C1074   1.408       .  A
C1073      C1078   1.418       .  A
C1074      C1075   1.413       .  A
C1074      H1083   1.081       .  S
C1075      C1076   1.412       .  A
C1075      S1079   1.804       .  S
C1076      C1077   1.400       .  A
C1077      C1078   1.393       .  A
C1077      H1084   1.084       .  S
C1078      S1080   1.797       .  S
S1079      H1082   1.407       .  S
S1080      H1081   1.404       .  S
C1085      C1086   1.414       .  A
C1085      C1090   1.426       .  A
C1086      C1087   1.398       .  A
C1086      H1095   1.077       .  S
C1087      C1088   1.409       .  A
C1087      S1091   1.804       .  S
C1088      C1089   1.398       .  A
C1089      C1090   1.402       .  A
C1089      H1096   1.083       .  S
C1090      S1092   1.807       .  S
S1091      H1094   1.407       .  S
S1092      H1093   1.407       .  S
C1097      C1098   1.405       .  A
C1097      C1102   1.413       .  A
C1098      C1099   1.399       .  A
C1098      H1107   1.084       .  S
C1099      C1100   1.411       .  A
C1099      S1103   1.800       .  S
C1100      C1101   1.403       .  A
C1101      C1102   1.398       .  A
C1101      H1108   1.084       .  S
C1102      S1104   1.803       .  S
S1103      H1106   1.407       .  S
S1104      H1105   1.407       .  S
C1109      C1110   1.406       .  A
C1109      C1114   1.424       .  A
C1110      C1111   1.402       .  A
C1110      H1119   1.081       .  S
C1111      C1112   1.416       .  A
C1111      S1115   1.809       .  S
C1112      C1113   1.401       .  A
C1113      C1114   1.409       .  A
C1113      H1120   1.083       .  S
C1114      S1116   1.800       .  S
S1115      H1118   1.406       .  S
S1116      H1117   1.403       .  S
C1121      C1122   1.407       .  A
C1121      C1126   1.409       .  A
C1122      C1123   1.396       .  A
C1122      H1131   1.085       .  S
C1123      C1124   1.415       .  A
C1123      S1127   1.803       .  S
C1124      C1125   1.411       .  A
C1125      C1126   1.406       .  A
C1125      H1132   1.083       .  S
C1126      S1128   1.803       .  S
S1127      H1130   1.408       .  S
S1128      H1129   1.405       .  S
C1133      C1134   1.404       .  A
C1133      C1138   1.412   1_554  A
C1134      C1135   1.397       .  A
C1134      H1143   1.084       .  S
C1135      C1136   1.414       .  A
C1135      S1139   1.803       .  S
C1136      C1137   1.406   1_554  A
C1137      C1138   1.403       .  A
C1137      H1144   1.082       .  S
C1138      S1140   1.808       .  S
S1139      H1142   1.407       .  S
S1140      H1141   1.407       .  S
C1145      C1146   1.401       .  A
C1145      C1150   1.409       .  A
C1146      C1147   1.399       .  A
C1146      H1155   1.085       .  S
C1147      C1148   1.414       .  A
C1147      S1151   1.804       .  S
C1148      C1149   1.407       .  A
C1149      C1150   1.400       .  A
C1149      H1156   1.084       .  S
C1150      S1152   1.806       .  S
S1151      H1154   1.401       .  S
S1152      H1153   1.405       .  S
C1157      C1158   1.410       .  A
C1157      C1162   1.416       .  A
C1158      C1159   1.407       .  A
C1158      H1167   1.082       .  S
C1159      C1160   1.406       .  A
C1159      S1163   1.804       .  S
C1160      C1161   1.403       .  A
C1161      C1162   1.398       .  A
C1161      H1168   1.084       .  S
C1162      S1164   1.803       .  S
S1163      H1166   1.407       .  S
S1164      H1165   1.408       .  S
