geometry optimzed in LAMMPS
_audit_creation_date              2020-12-01 
_audit_creation_method            'lammps2cif' 
_symmetry_space_group_name_H-M    'P1' 
_symmetry_Int_Tables_number       1 
_symmetry_cell_setting            triclinic 
loop_ 
_symmetry_equiv_pos_as_xyz 
  x,y,z 
_cell_length_a                    70.35493233 
_cell_length_b                    45.01939145037592 
_cell_length_c                    36.247533338372264 
_cell_angle_alpha                 89.61636953003097 
_cell_angle_beta                  89.67436467973953 
_cell_angle_gamma                 90.14089109560526 
loop_ 
_atom_site_label 
_atom_site_type_symbol 
_atom_site_fract_x 
_atom_site_fract_y 
_atom_site_fract_z 
_atom_site_charge 
O1          O  0.63112577  0.49716446  0.00839077    -0.73300
O2          O  0.57428000  0.49539167  0.00761393    -0.74200
O3          O  0.60288984  0.51088282  0.95511861    -0.62900
O4          O  0.60296267  0.48210663  0.06054580    -0.71300
O5          O  0.60169241  0.52864821  0.08026799    -0.70800
O6          O  0.60204744  0.55736700  0.97491027    -0.62100
O7          O  0.57362300  0.54200894  0.02691786    -0.74600
O8          O  0.63055824  0.54369860  0.02807626    -0.73400
Cu9        Cu  0.60282327  0.49477279  0.00722261     1.04600
Cu10       Cu  0.60198424  0.54456208  0.02818705     1.04300
C11         C  0.63985221  0.52049655  0.01887519     0.92900
C12         C  0.56491945  0.51848048  0.01693049     0.92100
C13         C  0.60226959  0.53879038  0.94838537     0.84200
C14         C  0.60246724  0.50077990  0.08695556     0.90500
O15         O  0.38408441  0.52065681  0.05275789    -0.73300
O16         O  0.38365355  0.55026898  0.94771205    -0.74200
O17         O  0.35557423  0.53247387  0.99940650    -0.62900
O18         O  0.41242304  0.53833148  0.00130500    -0.71300
O19         O  0.41448914  0.49203873  0.98124313    -0.70800
O20         O  0.35763018  0.48583765  0.98048149    -0.62100
O21         O  0.38547634  0.50379296  0.92825643    -0.74600
O22         O  0.38644563  0.47437467  0.03278652    -0.73400
Cu23       Cu  0.38388798  0.53707891  0.00093248     1.04600
Cu24       Cu  0.38611213  0.48745303  0.97992009     1.04300
C25         C  0.38539830  0.49279765  0.05937465     0.92900
C26         C  0.38408221  0.53158522  0.92130944     0.92100
C27         C  0.34759864  0.50822245  0.98975292     0.84200
C28         C  0.42247585  0.51585010  0.99238461     0.90500
C29         C  0.39287203  0.60596609  0.65910454     0.86200
C30         C  0.41413815  0.60044108  0.65362100    -0.54100
C31         C  0.42101802  0.60777895  0.61954054     0.09100
C32         C  0.40584659  0.62057448  0.59347361     0.20000
C33         C  0.39010882  0.63895926  0.64909702    -0.54800
C34         C  0.39681946  0.64682180  0.61475062     0.09200
C35         C  0.38323813  0.58940418  0.62740242    -0.54300
C36         C  0.39018649  0.59651508  0.59325731     0.09800
H37         H  0.42307613  0.59128305  0.67523490     0.14300
H38         H  0.41130743  0.62643557  0.56555152     0.00000
H39         H  0.38336080  0.65492545  0.66709817     0.14600
H40         H  0.37218726  0.57280352  0.63160323     0.14400
C41         C  0.39947029  0.41194021  0.31882935     0.86200
C42         C  0.42051621  0.41738508  0.32673451    -0.54100
C43         C  0.42650282  0.40842304  0.36085105     0.09100
C44         C  0.41042301  0.39385557  0.38412346     0.20000
C45         C  0.39647161  0.37848764  0.32572685    -0.54800
C46         C  0.40232478  0.36872502  0.35960114     0.09200
C47         C  0.38874767  0.42658374  0.35085942    -0.54300
C48         C  0.39453004  0.41748551  0.38496745     0.09800
H49         H  0.42991238  0.42706818  0.30605729     0.14300
H50         H  0.41473198  0.38630589  0.41202930     0.00000
H51         H  0.39033466  0.36346763  0.30578882     0.14600
H52         H  0.37761352  0.44297248  0.34703767     0.14400
N53         N  0.36236182  0.55582622  0.52744952    -0.27600
N54         N  0.37901461  0.54277902  0.52261682    -0.35500
C55         C  0.39214260  0.55760278  0.54240358     0.00700
C56         C  0.38327499  0.58102525  0.56025461     0.06800
C57         C  0.36441644  0.57887578  0.55039405    -0.06300
H58         H  0.40663528  0.55027341  0.54628038     0.07400
H59         H  0.35273050  0.59156734  0.56166469     0.08600
Cu60       Cu  0.38220740  0.50296330  0.49339202     0.44200
Cu61       Cu  0.33665463  0.53962888  0.50878806     0.42000
Cu62       Cu  0.33729616  0.46772385  0.46876511     0.43900
N63         N  0.38014472  0.46475398  0.46074559    -0.35000
N64         N  0.36370941  0.45248020  0.45178048    -0.29300
C65         C  0.36674167  0.43165189  0.42603596    -0.05400
C66         C  0.38601105  0.43013793  0.41869369     0.06900
C67         C  0.39408489  0.45156834  0.44107330     0.00700
H68         H  0.35556721  0.42027956  0.41132021     0.08300
H69         H  0.40869293  0.45911696  0.44021402     0.07400
N70         N  0.31234546  0.48998641  0.48124486    -0.36400
N71         N  0.31212763  0.51728788  0.49433749    -0.28600
C72         C  0.29400357  0.52640527  0.49763403    -0.03900
C73         C  0.28224275  0.50353582  0.48642881     0.04700
C74         C  0.29435554  0.48076195  0.47632038     0.02800
H75         H  0.28971557  0.54781943  0.50814663     0.07900
H76         H  0.29040196  0.45928359  0.46552298     0.06800
C77         C  0.39645726  0.90809946  0.64702474     0.86200
C78         C  0.39236977  0.87540589  0.63762202    -0.54100
C79         C  0.39914578  0.86654621  0.60395505     0.09100
C80         C  0.40949216  0.89164441  0.58236733     0.20000
C81         C  0.41794520  0.91155214  0.64228075    -0.54800
C82         C  0.42482796  0.90324285  0.60870461     0.09200
C83         C  0.38793065  0.92540526  0.61444102    -0.54300
C84         C  0.39494695  0.91717671  0.58074587     0.09800
H85         H  0.38471209  0.86023111  0.65560985     0.14300
H86         H  0.41501528  0.88495647  0.55489542     0.00000
H87         H  0.42703325  0.92009012  0.66394614     0.14600
H88         H  0.37746418  0.94290761  0.61767620     0.14400
C89         C  0.40575602  0.10821479  0.30131132     0.86200
C90         C  0.39433366  0.09108530  0.33078319    -0.54100
C91         C  0.39949784  0.09711558  0.36616721     0.09100
C92         C  0.41537557  0.12062221  0.36921295     0.20000
C93         C  0.40294295  0.14098569  0.31155644    -0.54800
C94         C  0.40792833  0.14772052  0.34690970     0.09200
C95         C  0.42663670  0.10192633  0.31028823    -0.54300
C96         C  0.43185734  0.10770236  0.34586309     0.09800
H97         H  0.38348595  0.07477560  0.32417946     0.14300
H98         H  0.41896083  0.12579057  0.39820829     0.00000
H99         H  0.39744590  0.15787666  0.29314551     0.14600
H100        H  0.43636975  0.09356918  0.28952083     0.14400
N101        N  0.36904372  0.05536919  0.42858743    -0.27600
N102        N  0.38568403  0.04346485  0.43705053    -0.35500
C103        C  0.39942118  0.05853693  0.41855894     0.00700
C104        C  0.39097809  0.08077759  0.39764956     0.06800
C105        C  0.37176102  0.07780286  0.40448211    -0.06300
H106        H  0.41425751  0.05226995  0.41798803     0.07400
H107        H  0.36043352  0.08979730  0.39093795     0.08600
Cu108      Cu  0.38869770  0.00477415  0.46967879     0.44200
Cu109      Cu  0.34258670  0.03919628  0.44462516     0.42000
Cu110      Cu  0.34350065  0.96926186  0.48778649     0.43900
N111        N  0.38539438  0.96672552  0.50340024    -0.35000
N112        N  0.36855710  0.95444655  0.50938094    -0.29300
C113        C  0.36991800  0.93342933  0.53556686    -0.05400
C114        C  0.38855987  0.93167055  0.54649187     0.06900
C115        C  0.39807937  0.95318080  0.52573071     0.00700
H116        H  0.35791189  0.92186698  0.54779022     0.08300
H117        H  0.41268550  0.96019529  0.52903286     0.07400
N118        N  0.31863012  0.98918973  0.47275704    -0.36400
N119        N  0.31795851  0.01602532  0.45803500    -0.28600
C120        C  0.29963860  0.02402228  0.45450945    -0.03900
C121        C  0.28837086  0.00082704  0.46754065     0.04700
C122        C  0.30093186  0.97913446  0.47879484     0.02800
H123        H  0.29490993  0.04518580  0.44368671     0.07900
H124        H  0.29753051  0.95817629  0.49206917     0.06800
O125        O  0.57901714  0.03336419  0.99806901    -0.73300
O126        O  0.63588456  0.03006666  0.00209789    -0.74200
O127        O  0.60783499  0.01867019  0.94675501    -0.62900
O128        O  0.60651201  0.04421177  0.05352405    -0.71300
O129        O  0.60544897  0.99705181  0.07151983    -0.70800
O130        O  0.60675192  0.97184493  0.96606405    -0.62100
O131        O  0.63465463  0.98303208  0.02043298    -0.74600
O132        O  0.57742558  0.98639582  0.01656306    -0.73400
Cu133      Cu  0.60743792  0.03325188  0.99952876     1.04600
Cu134      Cu  0.60604510  0.98298153  0.01925524     1.04300
C135        C  0.56917675  0.01033169  0.00618161     0.92900
C136        C  0.64431948  0.00622166  0.01204104     0.92100
C137        C  0.60715982  0.99086694  0.93977014     0.84200
C138        C  0.60557283  0.02465310  0.07930172     0.90500
O139        O  0.38828738  0.01508109  0.91138495    -0.73300
O140        O  0.38917532  0.04832969  0.01390783    -0.74200
O141        O  0.41760298  0.03166215  0.96195938    -0.62900
O142        O  0.36007710  0.03137231  0.96401989    -0.71300
O143        O  0.36070145  0.98550946  0.98664466    -0.70800
O144        O  0.41759739  0.98594913  0.98497797    -0.62100
O145        O  0.38947652  0.00262746  0.03701336    -0.74600
O146        O  0.38852845  0.96931043  0.93427062    -0.73400
Cu147      Cu  0.38880133  0.03320476  0.96195065     1.04600
Cu148      Cu  0.38910008  0.98429489  0.98648612     1.04300
C149        C  0.38796745  0.98698605  0.90652197     0.92900
C150        C  0.38950067  0.03076620  0.04173043     0.92100
C151        C  0.42669130  0.00895292  0.97386497     0.84200
C152        C  0.35134049  0.00809368  0.97552014     0.90500
C153        C  0.58776243  0.90878807  0.68334930     0.86200
C154        C  0.56726108  0.91400759  0.67065161    -0.54100
C155        C  0.56372965  0.90561089  0.63513537     0.09100
C156        C  0.58105973  0.89208797  0.61547538     0.20000
C157        C  0.59096156  0.87536836  0.67650171    -0.54800
C158        C  0.58746801  0.86662828  0.64123844     0.09200
C159        C  0.60014471  0.92450069  0.65431017    -0.54300
C160        C  0.59665290  0.91605440  0.61888690     0.09800
H161        H  0.55636817  0.92318920  0.68858112     0.14300
H162        H  0.57834137  0.88507747  0.58666325     0.00000
H163        H  0.59457873  0.85916682  0.69749183     0.14600
H164        H  0.61059498  0.94136058  0.66118837     0.14400
C165        C  0.59551668  0.14130454  0.38055657     0.86200
C166        C  0.60710855  0.12165816  0.40680247    -0.54100
C167        C  0.60243980  0.09206062  0.40494690     0.09100
C168        C  0.58667649  0.08484876  0.37671525     0.20000
C169        C  0.59891067  0.12749271  0.34264723    -0.54800
C170        C  0.59381112  0.09839358  0.33990101     0.09200
C171        C  0.57474697  0.13418443  0.39018805    -0.54300
C172        C  0.56997974  0.10486263  0.38821792     0.09800
H173        H  0.61784900  0.12997914  0.42540618     0.14300
H174        H  0.58289394  0.06093840  0.37501742     0.00000
H175        H  0.60432239  0.14023943  0.31926345     0.14600
H176        H  0.56441516  0.15135807  0.39647804     0.14400
N177        N  0.63021623  0.95369125  0.55848675    -0.27600
N178        N  0.61413680  0.96144505  0.54233432    -0.35500
C179        C  0.59962775  0.94713496  0.55943841     0.00700
C180        C  0.60703461  0.92973426  0.58760131     0.06800
C181        C  0.62639348  0.93467450  0.58624050    -0.06300
H182        H  0.58474269  0.95101462  0.55386237     0.07400
H183        H  0.63684332  0.92647701  0.60555900     0.08600
Cu184      Cu  0.61288130  0.99475783  0.50177299     0.44200
Cu185      Cu  0.65666297  0.97175941  0.54648962     0.42000
Cu186      Cu  0.65730186  0.03737319  0.49211651     0.43900
N187        N  0.61645061  0.03168915  0.46691874    -0.35000
N188        N  0.63232731  0.04749586  0.46516827    -0.29300
C189        C  0.62981433  0.07078321  0.44243243    -0.05400
C190        C  0.61156574  0.06961511  0.42878324     0.06900
C191        C  0.60346082  0.04450266  0.44470287     0.00700
H192        H  0.64054300  0.08739354  0.43634559     0.08300
H193        H  0.58898737  0.03680254  0.44153664     0.07400
N194        N  0.68169804  0.01935008  0.51422831    -0.36400
N195        N  0.68151196  0.99434058  0.53342324    -0.28600
C196        C  0.69950317  0.98611155  0.54023744    -0.03900
C197        C  0.71164761  0.00701055  0.52450805     0.04700
C198        C  0.69980898  0.02790239  0.50846020     0.02800
H199        H  0.70340893  0.96593117  0.55463908     0.07900
H200        H  0.70401829  0.04686461  0.49181631     0.06800
C201        C  0.58685163  0.60358376  0.68217281     0.86200
C202        C  0.59740341  0.58703687  0.65118834    -0.54100
C203        C  0.59204897  0.59538815  0.61638806     0.09100
C204        C  0.57688550  0.62001708  0.61548090     0.20000
C205        C  0.59071735  0.63641336  0.67347202    -0.54800
C206        C  0.58537636  0.64528497  0.63902851     0.09200
C207        C  0.56575891  0.59888851  0.67366066    -0.54300
C208        C  0.56049486  0.60705488  0.63883239     0.09800
H209        H  0.60833516  0.57051175  0.65556674     0.14300
H210        H  0.57277040  0.62696894  0.58718274     0.00000
H211        H  0.59674979  0.65169558  0.69333895     0.14600
H212        H  0.55581584  0.58962404  0.69371717     0.14400
C213        C  0.59393887  0.36567266  0.37930685     0.86200
C214        C  0.59902655  0.38090914  0.34273573    -0.54100
C215        C  0.59395519  0.41010647  0.34017358     0.09100
C216        C  0.58396413  0.42162419  0.37557195     0.20000
C217        C  0.60347256  0.38518044  0.40858060    -0.54800
C218        C  0.59815198  0.41447821  0.40672970     0.09200
C219        C  0.57266067  0.37111035  0.38457924    -0.54300
C220        C  0.56723766  0.40010818  0.38291598     0.09800
H221        H  0.60569120  0.36890174  0.32026527     0.14300
H222        H  0.57980956  0.44537006  0.37440768     0.00000
H223        H  0.61346413  0.37708399  0.42891451     0.14600
H224        H  0.56260008  0.35305983  0.38900943     0.14400
N225        N  0.62590376  0.46128277  0.46751406    -0.27600
N226        N  0.60940891  0.47532923  0.46956306    -0.35500
C227        C  0.59687666  0.46114497  0.44769545     0.00700
C228        C  0.60596759  0.43703207  0.43183877     0.06800
C229        C  0.62426233  0.43786912  0.44506897    -0.06300
H230        H  0.58216710  0.46748502  0.44424105     0.07400
H231        H  0.63570136  0.42273700  0.43851578     0.08600
Cu232      Cu  0.60476830  0.51261360  0.50315510     0.44200
Cu233      Cu  0.65075154  0.47342615  0.49332181     0.42000
Cu234      Cu  0.64929281  0.53950259  0.54217416     0.43900
N235        N  0.60664042  0.54832842  0.54016995    -0.35000
N236        N  0.62313931  0.55784340  0.55291364    -0.29300
C237        C  0.62015991  0.57810053  0.57917333    -0.05400
C238        C  0.60089403  0.58198834  0.58352052     0.06900
C239        C  0.59262179  0.56272534  0.55839081     0.00700
H240        H  0.63122204  0.58728460  0.59633347     0.08300
H241        H  0.57765249  0.55752068  0.55611957     0.07400
N242        N  0.67407052  0.51587737  0.53622616    -0.36400
N243        N  0.67457675  0.49048118  0.51839038    -0.28600
C244        C  0.69248578  0.48021104  0.51815871    -0.03900
C245        C  0.70381778  0.50032905  0.53671496     0.04700
C246        C  0.69163080  0.52269391  0.54783524     0.02800
H247        H  0.69704262  0.46034328  0.50403903     0.07900
H248        H  0.69526443  0.54268057  0.56265322     0.06800
O249        O  0.09967490  0.51346232  0.42081569    -0.73300
O250        O  0.10307501  0.54432590  0.52491715    -0.74200
O251        O  0.13019776  0.52817419  0.46947914    -0.62900
O252        O  0.07263606  0.52946235  0.47756117    -0.71300
O253        O  0.07340352  0.48342755  0.49947757    -0.70800
O254        O  0.12994564  0.48188259  0.49062438    -0.62100
O255        O  0.10370254  0.49809067  0.54629406    -0.74600
O256        O  0.09953556  0.46744178  0.44287642    -0.73400
Cu257      Cu  0.10141580  0.53049495  0.47227756     1.04600
Cu258      Cu  0.10168125  0.48116163  0.49537878     1.04300
C259        C  0.09901845  0.48542153  0.41542862     0.92900
C260        C  0.10359745  0.52606731  0.55207283     0.92100
C261        C  0.13914146  0.50473164  0.47942190     0.84200
C262        C  0.06401483  0.50671273  0.49101713     0.90500
O263        O  0.85625560  0.48007297  0.54011348    -0.73300
O264        O  0.91315747  0.48421565  0.53908460    -0.74200
O265        O  0.88418705  0.49757555  0.59152597    -0.62900
O266        O  0.88477498  0.46705211  0.48779393    -0.71300
O267        O  0.88355807  0.51320629  0.46617550    -0.70800
O268        O  0.88330391  0.54365652  0.56966974    -0.62100
O269        O  0.91216987  0.53023247  0.51711211    -0.74600
O270        O  0.85494549  0.52639412  0.51910195    -0.73400
Cu271      Cu  0.88468670  0.48063847  0.54036276     1.04600
Cu272      Cu  0.88347540  0.52998661  0.51726831     1.04300
C273        C  0.84657336  0.50262888  0.53001263     0.92900
C274        C  0.92174220  0.50766460  0.52778635     0.92100
C275        C  0.88347029  0.52557430  0.59698614     0.84200
C276        C  0.88395452  0.48523117  0.46060332     0.90500
C277        C  0.89319687  0.60011060  0.85712658     0.86200
C278        C  0.89121933  0.63320064  0.86666772    -0.54100
C279        C  0.89902279  0.64082522  0.89961280     0.09100
C280        C  0.90780492  0.61444245  0.92090961     0.20000
C281        C  0.91441542  0.59342184  0.86072209    -0.54800
C282        C  0.92213058  0.60043859  0.89399219     0.09200
C283        C  0.88386448  0.58408268  0.89012975    -0.54300
C284        C  0.89163968  0.59137855  0.92339141     0.09800
H285        H  0.88431331  0.64957238  0.84928707     0.14300
H286        H  0.91387896  0.62047163  0.94806672     0.00000
H287        H  0.92267880  0.58396939  0.83828753     0.14600
H288        H  0.87235798  0.56811945  0.88756325     0.14400
C289        C  0.89405781  0.40614830  0.20216081     0.86200
C290        C  0.88373234  0.42217728  0.17077529    -0.54100
C291        C  0.88969016  0.41415667  0.13642815     0.09100
C292        C  0.90529545  0.39032702  0.13626092     0.20000
C293        C  0.89115399  0.37291942  0.19400257    -0.54800
C294        C  0.89697145  0.36447343  0.15960457     0.09200
C295        C  0.91527076  0.41141122  0.19454903    -0.54300
C296        C  0.92142521  0.40361396  0.16001192     0.09800
H297        H  0.87288303  0.43891308  0.17533145     0.14300
H298        H  0.90926542  0.38375233  0.10790108     0.00000
H299        H  0.88543802  0.35681549  0.21334638     0.14600
H300        H  0.92448958  0.42002728  0.21580632     0.14400
N301        N  0.86437933  0.55621336  0.99565046    -0.27600
N302        N  0.88016434  0.54040228  0.99763777    -0.35500
C303        C  0.89321963  0.55275657  0.97485707     0.00700
C304        C  0.88516421  0.57734236  0.95791905     0.06800
C305        C  0.86687993  0.57865948  0.97156657    -0.06300
H306        H  0.90682917  0.54291048  0.96829608     0.07400
H307        H  0.85562901  0.59305140  0.96193545     0.08600
Cu308      Cu  0.88175883  0.49995954  0.02623042     0.44200
Cu309      Cu  0.83856732  0.54337114  0.01751248     0.42000
Cu310      Cu  0.83523876  0.47003716  0.05271802     0.43900
N311        N  0.87779148  0.46232060  0.05958754    -0.35000
N312        N  0.86080126  0.45217854  0.06929609    -0.29300
C313        C  0.86272736  0.43155515  0.09588612    -0.05400
C314        C  0.88180776  0.42802703  0.10303439     0.06900
C315        C  0.89101539  0.44783389  0.07956359     0.00700
H316        H  0.85100771  0.42169526  0.11110648     0.08300
H317        H  0.90596558  0.45351588  0.07983615     0.07400
N318        N  0.81163604  0.49527992  0.04065467    -0.36400
N319        N  0.81297495  0.52301418  0.02895495    -0.28600
C320        C  0.79546835  0.53398894  0.02383543    -0.03900
C321        C  0.78240197  0.51200599  0.03272637     0.04700
C322        C  0.79319170  0.48771080  0.04329783     0.02800
H323        H  0.79255795  0.55608450  0.01345670     0.07900
H324        H  0.78808719  0.46621689  0.05253164     0.06800
C325        C  0.89868901  0.90192249  0.84835056     0.86200
C326        C  0.91999408  0.90650223  0.85507805    -0.54100
C327        C  0.92607634  0.89884590  0.88954310     0.09100
C328        C  0.91014199  0.88667641  0.91456889     0.20000
C329        C  0.89513354  0.86895896  0.85830809    -0.54800
C330        C  0.90122145  0.86100427  0.89265745     0.09200
C331        C  0.88880359  0.91897489  0.87966658    -0.54300
C332        C  0.89490042  0.91118029  0.91421656     0.09800
H333        H  0.92957503  0.91470449  0.83369294     0.14300
H334        H  0.91489358  0.88022921  0.94266405     0.00000
H335        H  0.88889324  0.85263202  0.84024683     0.14600
H336        H  0.87815015  0.93597978  0.87494593     0.14400
C337        C  0.90651119  0.14224926  0.14329606     0.86200
C338        C  0.89495483  0.12258349  0.11726493    -0.54100
C339        C  0.89789357  0.09279849  0.12205700     0.09100
C340        C  0.91172337  0.08510293  0.15348777     0.20000
C341        C  0.90124431  0.13102006  0.18225794    -0.54800
C342        C  0.90373011  0.10109288  0.18793944     0.09200
C343        C  0.92726190  0.13191660  0.13829910    -0.54300
C344        C  0.92990096  0.10220095  0.14349288     0.09800
H345        H  0.88571101  0.13153094  0.09603961     0.14300
H346        H  0.91394403  0.06086026  0.15697614     0.00000
H347        H  0.89653284  0.14595791  0.20379636     0.14600
H348        H  0.93922650  0.14638371  0.13239192     0.14400
N349        N  0.86809584  0.04726772  0.06319643    -0.27600
N350        N  0.88406093  0.03186635  0.06135531    -0.35500
C351        C  0.89718119  0.04533991  0.08258122     0.00700
C352        C  0.88902119  0.07047451  0.09789778     0.06800
C353        C  0.87066967  0.07104330  0.08478683    -0.06300
H354        H  0.91164035  0.03773929  0.08609504     0.07400
H355        H  0.85976054  0.08708192  0.09139310     0.08600
Cu356      Cu  0.88669179  0.99355468  0.02907876     0.44200
Cu357      Cu  0.84254903  0.03365737  0.04127731     0.42000
Cu358      Cu  0.84100994  0.95935277  0.00822805     0.43900
N359        N  0.88330858  0.95765913  0.99303179    -0.35000
N360        N  0.86659151  0.94541325  0.98608773    -0.29300
C361        C  0.86850328  0.92578069  0.95857095    -0.05400
C362        C  0.88731749  0.92521393  0.94781765     0.06900
C363        C  0.89636123  0.94569893  0.97012163     0.00700
H364        H  0.85682045  0.91417077  0.94573529     0.08300
H365        H  0.91098944  0.95299403  0.96788981     0.07400
N366        N  0.81683044  0.98319931  0.02108236    -0.36400
N367        N  0.81749978  0.01129065  0.03119621    -0.28600
C368        C  0.79971788  0.02160963  0.03492377    -0.03900
C369        C  0.78716221  0.99886160  0.02680590     0.04700
C370        C  0.79854797  0.97475873  0.01823477     0.02800
H371        H  0.79625253  0.04400238  0.04318622     0.07900
H372        H  0.79394293  0.95303174  0.00931558     0.06800
O373        O  0.13752805  0.01405498  0.50949880    -0.73300
O374        O  0.08096760  0.01528397  0.50976050    -0.74200
O375        O  0.10890709  0.99887684  0.56213488    -0.62900
O376        O  0.10960058  0.02970569  0.45717010    -0.71300
O377        O  0.10869002  0.98340494  0.43664489    -0.70800
O378        O  0.10886301  0.95286027  0.54081036    -0.62100
O379        O  0.08048733  0.96886940  0.48966133    -0.74600
O380        O  0.13761675  0.96800740  0.48817637    -0.73400
Cu381      Cu  0.10930831  0.01607033  0.51035970     1.04600
Cu382      Cu  0.10895410  0.96666424  0.48810523     1.04300
C383        C  0.14659685  0.99123427  0.49847179     0.92900
C384        C  0.07171426  0.99222561  0.50010003     0.92100
C385        C  0.10852728  0.97080613  0.56797952     0.84200
C386        C  0.10892053  0.01135716  0.43039348     0.90500
O387        O  0.89365969  0.99015813  0.45299430    -0.73300
O388        O  0.88992058  0.95929926  0.55765150    -0.74200
O389        O  0.86327600  0.97609982  0.50264305    -0.62900
O390        O  0.91991270  0.97330600  0.50823617    -0.71300
O391        O  0.92062405  0.01991531  0.52758411    -0.70800
O392        O  0.86352756  0.02208494  0.52423485    -0.62100
O393        O  0.89108789  0.00542301  0.57849939    -0.74600
O394        O  0.89305604  0.03638652  0.47379498    -0.73400
Cu395      Cu  0.89165837  0.97313875  0.50467058     1.04600
Cu396      Cu  0.89208050  0.02257053  0.52679381     1.04300
C397        C  0.89374593  0.01817306  0.44689401     0.92900
C398        C  0.89029130  0.97742268  0.58467578     0.92100
C399        C  0.85439115  0.99946195  0.51259329     0.84200
C400        C  0.92927926  0.99610222  0.51849578     0.90500
C401        C  0.08757615  0.58989006  0.81792071     0.86200
C402        C  0.06646800  0.58615910  0.82735551    -0.54100
C403        C  0.06168596  0.59344201  0.86273734     0.09100
C404        C  0.07867055  0.60432122  0.88576307     0.20000
C405        C  0.09228928  0.62222192  0.82774288    -0.54800
C406        C  0.08767255  0.63007382  0.86311205     0.09200
C407        C  0.09811244  0.57178914  0.84759281    -0.54300
C408        C  0.09327019  0.57902363  0.88296043     0.09800
H409        H  0.05613451  0.57854171  0.80734738     0.14300
H410        H  0.07504103  0.61016336  0.91465639     0.00000
H411        H  0.09862309  0.63772859  0.80815944     0.14600
H412        H  0.10882795  0.55518632  0.84167535     0.14400
C413        C  0.08716159  0.35133869  0.11972223     0.86200
C414        C  0.09760577  0.37244330  0.09322941    -0.54100
C415        C  0.09301973  0.40173437  0.09745764     0.09100
C416        C  0.07824724  0.40741280  0.12821427     0.20000
C417        C  0.09139586  0.36353462  0.15846809    -0.54800
C418        C  0.08674841  0.39286201  0.16312038     0.09200
C419        C  0.06595356  0.35824712  0.11467354    -0.54300
C420        C  0.06123755  0.38737418  0.11868230     0.09800
H421        H  0.10784063  0.36480148  0.07287497     0.14300
H422        H  0.07442043  0.43115814  0.13156658     0.00000
H423        H  0.09714074  0.35006984  0.18065259     0.14600
H424        H  0.05521159  0.34125929  0.11053796     0.14400
N425        N  0.12423404  0.54080866  0.94684613    -0.27600
N426        N  0.10763538  0.53368406  0.96180454    -0.35500
C427        C  0.09385208  0.54800145  0.94294373     0.00700
C428        C  0.10236653  0.56451884  0.91486271     0.06800
C429        C  0.12155149  0.55925132  0.91817686    -0.06300
H430        H  0.07876697  0.54486206  0.94747962     0.07400
H431        H  0.13272048  0.56704084  0.89985298     0.08600
Cu432      Cu  0.10517577  0.50102825  0.00331060     0.44200
Cu433      Cu  0.14995004  0.52301201  0.96183101     0.42000
Cu434      Cu  0.15053419  0.46019160  0.01935461     0.43900
N435        N  0.10821420  0.46410302  0.03865886    -0.35000
N436        N  0.12432129  0.44919659  0.04250723    -0.29300
C437        C  0.12124485  0.42544946  0.06433003    -0.05400
C438        C  0.10244418  0.42530599  0.07532621     0.06900
C439        C  0.09454626  0.45021183  0.05875393     0.00700
H440        H  0.13198186  0.40929893  0.07157663     0.08300
H441        H  0.07980862  0.45697412  0.05989899     0.07400
N442        N  0.17533199  0.47800049  0.99693678    -0.36400
N443        N  0.17479345  0.50208381  0.97606280    -0.28600
C444        C  0.19255522  0.51060916  0.96755412    -0.03900
C445        C  0.20506815  0.49091282  0.98383258     0.04700
C446        C  0.19364112  0.47030698  0.00214003     0.02800
H447        H  0.19605420  0.53010506  0.95126201     0.07900
H448        H  0.19828383  0.45205574  0.01940902     0.06800
C449        C  0.09243473  0.89249551  0.82961466     0.86200
C450        C  0.09608646  0.85940993  0.83738757    -0.54100
C451        C  0.09075407  0.84987992  0.87182765     0.09100
C452        C  0.08235325  0.87490343  0.89606553     0.20000
C453        C  0.07140079  0.89704285  0.83860934    -0.54800
C454        C  0.06600742  0.88831466  0.87332958     0.09200
C455        C  0.10314486  0.90827509  0.86081041    -0.54300
C456        C  0.09773357  0.89938612  0.89553205     0.09800
H457        H  0.10240936  0.84453157  0.81741535     0.14300
H458        H  0.07820579  0.86764791  0.92432401     0.00000
H459        H  0.06157916  0.90659451  0.81881342     0.14600
H460        H  0.11406678  0.92496609  0.85606078     0.14400
C461        C  0.09103224  0.12794896  0.12262433     0.86200
C462        C  0.09570389  0.11898311  0.16253241    -0.54100
C463        C  0.09302265  0.08949006  0.17078597     0.09100
C464        C  0.08515485  0.07163034  0.13777230     0.20000
C465        C  0.10265543  0.10667712  0.09857145    -0.54800
C466        C  0.09934604  0.07724203  0.10598047     0.09200
C467        C  0.07027497  0.11773677  0.11836546    -0.54300
C468        C  0.06723431  0.08843313  0.12609218     0.09800
H469        H  0.09998423  0.13516454  0.18287864     0.14300
H470        H  0.08263907  0.04768466  0.14323477     0.00000
H471        H  0.11219106  0.11425599  0.07678157     0.14600
H472        H  0.05857260  0.13246765  0.11182024     0.14400
N473        N  0.12902119  0.02817911  0.05108740    -0.27600
N474        N  0.11282050  0.01320877  0.04972270    -0.35500
C475        C  0.09975798  0.02784763  0.07012619     0.00700
C476        C  0.10820388  0.05326162  0.08422644     0.06800
C477        C  0.12666176  0.05272199  0.07141863    -0.06300
H478        H  0.08504799  0.02118451  0.07326279     0.07400
H479        H  0.13766943  0.06896493  0.07660936     0.08600
Cu480      Cu  0.10937652  0.97507428  0.01688884     0.44200
Cu481      Cu  0.15428775  0.01531696  0.02701301     0.42000
Cu482      Cu  0.15496570  0.94763689  0.98015674     0.43900
N483        N  0.11193357  0.94174684  0.97651527    -0.35000
N484        N  0.12857061  0.93265878  0.96360933    -0.29300
C485        C  0.12579383  0.91489934  0.93453706    -0.05400
C486        C  0.10654402  0.91200528  0.92886240     0.06900
C487        C  0.09808133  0.92930663  0.95594257     0.00700
H488        H  0.13705472  0.90617671  0.91731492     0.08300
H489        H  0.08311420  0.93442734  0.95847718     0.07400
N490        N  0.17956741  0.97139177  0.99005053    -0.36400
N491        N  0.17907260  0.99752701  0.00622689    -0.28600
C492        C  0.19665026  0.00920594  0.00648692    -0.03900
C493        C  0.20889966  0.98935387  0.98968763     0.04700
C494        C  0.19756355  0.96548623  0.97975474     0.02800
H495        H  0.20023418  0.03046895  0.01833876     0.07900
H496        H  0.20193547  0.94572750  0.96518909     0.06800
C497        C  0.09200611  0.31855278  0.11346571    -0.01600
C498        C  0.10662581  0.30424209  0.13290815    -0.09600
C499        C  0.10927673  0.27347641  0.13026212    -0.18500
C500        C  0.09718640  0.25582317  0.10826627     0.03900
C501        C  0.08330372  0.27066814  0.08670170     0.18100
C502        C  0.08151666  0.30165880  0.08814544    -0.19900
C503        C  0.07059734  0.25443084  0.06511028    -0.21200
C504        C  0.07063533  0.22359231  0.06612297    -0.19700
C505        C  0.08373487  0.20822415  0.08794070     0.19500
C506        C  0.09773627  0.22401755  0.10805874     0.01600
C507        C  0.11132955  0.20717787  0.12765593    -0.14400
C508        C  0.10984177  0.17620663  0.13019885    -0.12100
C509        C  0.09458168  0.16094066  0.11401232     0.01200
C510        C  0.08246587  0.17713956  0.09064187    -0.24300
H511        H  0.11592994  0.31668818  0.15077508     0.09200
H512        H  0.12039239  0.26399162  0.14691440     0.12700
H513        H  0.07115080  0.31240878  0.07060864     0.11500
H514        H  0.05999632  0.26565242  0.04854012     0.12600
H515        H  0.06006307  0.21168870  0.05033396     0.11700
H516        H  0.12309346  0.21736645  0.14174322     0.08800
H517        H  0.12035880  0.16427728  0.14612203     0.12000
H518        H  0.07166829  0.16577461  0.07492142     0.13900
C519        C  0.09086225  0.66089671  0.87677621    -0.01600
C520        C  0.07740918  0.67502378  0.89915471    -0.09600
C521        C  0.07832581  0.70566430  0.90532202    -0.18500
C522        C  0.09299752  0.72315575  0.88944167     0.03900
C523        C  0.10780278  0.70809967  0.87041468     0.18100
C524        C  0.10662034  0.67737561  0.86434183    -0.19900
C525        C  0.12326146  0.72398601  0.85590844    -0.21200
C526        C  0.12373038  0.75478457  0.85766735    -0.19700
C527        C  0.10860221  0.77045614  0.87341454     0.19500
C528        C  0.09319271  0.75497193  0.89033021     0.01600
C529        C  0.07819111  0.77210498  0.90533127    -0.14400
C530        C  0.07797655  0.80311709  0.90144576    -0.12100
C531        C  0.09267764  0.81802905  0.88282426     0.01200
C532        C  0.10834949  0.80155332  0.87044668    -0.24300
H533        H  0.06557561  0.66282218  0.91050981     0.09200
H534        H  0.06710835  0.71515768  0.92180343     0.12700
H535        H  0.11765562  0.66646575  0.84847128     0.11500
H536        H  0.13477981  0.71258280  0.84201479     0.12600
H537        H  0.13562206  0.76648641  0.84511295     0.11700
H538        H  0.06601421  0.76208058  0.91866874     0.08800
H539        H  0.06575415  0.81520503  0.91130570     0.12000
H540        H  0.12004475  0.81290998  0.85672202     0.13900
C541        C  0.10795229  0.02248734  0.39197858    -0.01600
C542        C  0.11608250  0.04985148  0.38229680    -0.09600
C543        C  0.11471604  0.06088442  0.34629524    -0.18500
C544        C  0.10475313  0.04504645  0.31883450     0.03900
C545        C  0.09611768  0.01761889  0.32909123     0.18100
C546        C  0.09816208  0.00631755  0.36510731    -0.19900
C547        C  0.08515732  0.00195992  0.30357008    -0.21200
C548        C  0.08233225  0.01320038  0.26816350    -0.19700
C549        C  0.09093891  0.03987024  0.25694890     0.19500
C550        C  0.10266567  0.05575277  0.28185848     0.01600
C551        C  0.11197340  0.08148710  0.26854165    -0.14400
C552        C  0.10922514  0.09159586  0.23254332    -0.12100
C553        C  0.09676732  0.07696885  0.20846635     0.01200
C554        C  0.08787374  0.05076006  0.22094507    -0.24300
H555        H  0.12360535  0.06278089  0.40268523     0.09200
H556        H  0.12117502  0.08224088  0.34110671     0.12700
H557        H  0.09152720  0.98534667  0.37261514     0.11500
H558        H  0.07842481  0.98112532  0.31126351     0.12600
H559        H  0.07347923  0.00080137  0.24931098     0.11700
H560        H  0.12180419  0.09400844  0.28503799     0.08800
H561        H  0.11716321  0.11098732  0.22369679     0.12000
H562        H  0.07829317  0.03886429  0.20306390     0.13900
C563        C  0.10727199  0.95872420  0.60619243    -0.01600
C564        C  0.10432896  0.92822970  0.61194441    -0.09600
C565        C  0.10245139  0.91642475  0.64747718    -0.18500
C566        C  0.10343387  0.93480363  0.67890228     0.03900
C567        C  0.10660399  0.96570133  0.67308832     0.18100
C568        C  0.10846535  0.97733377  0.63703496    -0.19900
C569        C  0.10774181  0.98483154  0.70330778    -0.21200
C570        C  0.10569934  0.97398459  0.73919286    -0.19700
C571        C  0.10249155  0.94369439  0.74586610     0.19500
C572        C  0.10129311  0.92368364  0.71580825     0.01600
C573        C  0.09755293  0.89351471  0.72398668    -0.14400
C574        C  0.09518625  0.88364022  0.76028515    -0.12100
C575        C  0.09704592  0.90307146  0.79027715     0.01200
C576        C  0.10019282  0.93337607  0.78244631    -0.24300
H577        H  0.10327870  0.91326922  0.58876049     0.09200
H578        H  0.10022338  0.89278610  0.64931098     0.12700
H579        H  0.11075469  0.00096033  0.63302698     0.11500
H580        H  0.11016083  0.00840624  0.69916313     0.12600
H581        H  0.10658369  0.98944492  0.76191119     0.11700
H582        H  0.09589681  0.87698136  0.70290699     0.08800
H583        H  0.09125729  0.86063849  0.76441518     0.12000
H584        H  0.10047158  0.94919112  0.80482595     0.13900
C585        C  0.95024951  0.99477459  0.51900453    -0.01600
C586        C  0.95941741  0.96758707  0.51350163    -0.09600
C587        C  0.97912838  0.96606373  0.51104149    -0.18500
C588        C  0.99044261  0.99192095  0.51368175     0.03900
C589        C  0.98114613  0.01935229  0.52067938     0.18100
C590        C  0.96123127  0.02052331  0.52341632    -0.19900
C591        C  0.99175903  0.04550170  0.52425898    -0.21200
C592        C  0.01144144  0.04505302  0.52066390    -0.19700
C593        C  0.02096317  0.01847898  0.51316711     0.19500
C594        C  0.01060278  0.99153557  0.50940836     0.01600
C595        C  0.02086363  0.96542588  0.50107782    -0.14400
C596        C  0.04056721  0.96595298  0.49735375    -0.12100
C597        C  0.05075342  0.99237681  0.50189761     0.01200
C598        C  0.04083311  0.01865203  0.50949218    -0.24300
H599        H  0.95129802  0.94726592  0.51062736     0.09200
H600        H  0.98500404  0.94428433  0.50678812     0.12700
H601        H  0.95427231  0.04165428  0.52799307     0.11500
H602        H  0.98478305  0.06647045  0.52971009     0.12600
H603        H  0.01926214  0.06567449  0.52354690     0.11700
H604        H  0.01413985  0.94417704  0.49718342     0.08800
H605        H  0.04787686  0.94536909  0.49140902     0.12000
H606        H  0.04858434  0.03930805  0.51277017     0.13900
C607        C  0.94878391  0.08852711  0.13901832    -0.01600
C608        C  0.95818910  0.07598819  0.16916357    -0.09600
C609        C  0.97741197  0.06828580  0.16636998    -0.18500
C610        C  0.98769858  0.07316615  0.13314133     0.03900
C611        C  0.97746035  0.08361706  0.10191112     0.18100
C612        C  0.95824254  0.09124582  0.10519593    -0.19900
C613        C  0.98668784  0.08809466  0.06806651    -0.21200
C614        C  0.00623385  0.08489126  0.06521047    -0.19700
C615        C  0.01697213  0.07745963  0.09623759     0.19500
C616        C  0.00788843  0.07017762  0.13030488     0.01600
C617        C  0.01958814  0.06264557  0.16064086    -0.14400
C618        C  0.03935967  0.06575483  0.15828399    -0.12100
C619        C  0.04788126  0.07586178  0.12561186     0.01200
C620        C  0.03678821  0.07983506  0.09414893    -0.24300
H621        H  0.95096059  0.07369041  0.19548447     0.09200
H622        H  0.98398936  0.05964845  0.19097124     0.12700
H623        H  0.95079361  0.10072476  0.08179520     0.11500
H624        H  0.97885258  0.09545270  0.04403385     0.12600
H625        H  0.01310345  0.08992605  0.03905438     0.11700
H626        H  0.01384158  0.05611510  0.18710600     0.08800
H627        H  0.04782017  0.06256386  0.18284882     0.12000
H628        H  0.04352638  0.08744041  0.06877629     0.13900
C629        C  0.89429476  0.02970628  0.40852687    -0.01600
C630        C  0.88391985  0.05511254  0.39916538    -0.09600
C631        C  0.88394516  0.06610806  0.36301023    -0.18500
C632        C  0.89479419  0.05234064  0.33493595     0.03900
C633        C  0.90569899  0.02695556  0.34479145     0.18100
C634        C  0.90507549  0.01558500  0.38112775    -0.19900
C635        C  0.91734741  0.01333862  0.31842829    -0.21200
C636        C  0.91867798  0.02468335  0.28264811    -0.19700
C637        C  0.90809851  0.04959911  0.27200887     0.19500
C638        C  0.89563217  0.06330998  0.29775238     0.01600
C639        C  0.88462977  0.08750855  0.28515437    -0.14400
C640        C  0.88677348  0.09871911  0.24934320    -0.12100
C641        C  0.90002300  0.08650500  0.22462865     0.01200
C642        C  0.91021914  0.06126696  0.23598081    -0.24300
H643        H  0.87548376  0.06634333  0.41989667     0.09200
H644        H  0.87560403  0.08576039  0.35809959     0.12700
H645        H  0.91334816  0.99611945  0.38833512     0.11500
H646        H  0.92575645  0.99405293  0.32570713     0.12600
H647        H  0.92812145  0.01393642  0.26317370     0.11700
H648        H  0.87420785  0.09829120  0.30231584     0.08800
H649        H  0.87798450  0.11729519  0.24116743     0.12000
H650        H  0.92037912  0.05120621  0.21738349     0.13900
C651        C  0.94639121  0.90135915  0.89999085    -0.01600
C652        C  0.95538915  0.87907360  0.92053373    -0.09600
C653        C  0.97524122  0.87829391  0.92305061    -0.18500
C654        C  0.98661003  0.90019754  0.90536398     0.03900
C655        C  0.97716230  0.92436381  0.88796292     0.18100
C656        C  0.95732345  0.92484303  0.88580951    -0.19900
C657        C  0.98753970  0.94715499  0.87086962    -0.21200
C658        C  0.00715736  0.94547992  0.86829136    -0.19700
C659        C  0.01681542  0.92096784  0.88272943     0.19500
C660        C  0.00686569  0.89843251  0.90263083     0.01600
C661        C  0.01759132  0.87451746  0.91714709    -0.14400
C662        C  0.03705438  0.87195193  0.90942108    -0.12100
C663        C  0.04632467  0.89303600  0.88713774     0.01200
C664        C  0.03628816  0.91824411  0.87566808    -0.24300
H665        H  0.94720546  0.86141126  0.93326361     0.09200
H666        H  0.98128711  0.85982388  0.93794147     0.12700
H667        H  0.95038329  0.94291921  0.87129779     0.11500
H668        H  0.98038163  0.96583186  0.85807796     0.12600
H669        H  0.01475541  0.96291160  0.85357957     0.11700
H670        H  0.01121763  0.85697180  0.93341957     0.08800
H671        H  0.04458680  0.85273274  0.91956474     0.12000
H672        H  0.04353610  0.93541038  0.85982403     0.13900
C673        C  0.89362081  0.91251008  0.80928026    -0.01600
C674        C  0.88848414  0.89290110  0.78093029    -0.09600
C675        C  0.88701962  0.90263230  0.74433947    -0.18500
C676        C  0.89073356  0.93248467  0.73433197     0.03900
C677        C  0.89540257  0.95254093  0.76300654     0.18100
C678        C  0.89659154  0.94254932  0.79981151    -0.19900
C679        C  0.89942440  0.98231979  0.75467338    -0.21200
C680        C  0.89907919  0.99258806  0.71838879    -0.19700
C681        C  0.89457756  0.97341279  0.68944813     0.19500
C682        C  0.89027820  0.94307253  0.69694560     0.01600
C683        C  0.88586981  0.92468913  0.66662198    -0.14400
C684        C  0.88582959  0.93592581  0.63054444    -0.12100
C685        C  0.89005181  0.96585273  0.62324800     0.01200
C686        C  0.89439810  0.98445217  0.65299409    -0.24300
H687        H  0.88620474  0.86957018  0.78599065     0.09200
H688        H  0.88336424  0.88598817  0.72436648     0.12700
H689        H  0.90074725  0.95800225  0.82114558     0.11500
H690        H  0.90305574  0.99775069  0.77636301     0.12600
H691        H  0.90239993  0.01572874  0.71291880     0.11700
H692        H  0.88240258  0.90149268  0.66980405     0.08800
H693        H  0.88239570  0.92102048  0.60820160     0.12000
H694        H  0.89783999  0.00759491  0.64777702     0.13900
C695        C  0.94175923  0.40677621  0.14782447    -0.01600
C696        C  0.94855276  0.39158558  0.11679438    -0.09600
C697        C  0.96780764  0.39194649  0.10743779    -0.18500
C698        C  0.98123057  0.40694943  0.12944563     0.03900
C699        C  0.97433229  0.42344081  0.15989755     0.18100
C700        C  0.95480397  0.42391943  0.16808210    -0.19900
C701        C  0.98703225  0.43837686  0.18298006    -0.21200
C702        C  0.00655420  0.43598771  0.17756428    -0.19700
C703        C  0.01383904  0.41906817  0.14852468     0.19500
C704        C  0.00126248  0.40505222  0.12335545     0.01600
C705        C  0.00931601  0.38871472  0.09405759    -0.14400
C706        C  0.02888215  0.38461752  0.09153798    -0.12100
C707        C  0.04111777  0.39688302  0.11770830     0.01200
C708        C  0.03360755  0.41501765  0.14536795    -0.24300
H709        H  0.93928048  0.37833086  0.09995007     0.09200
H710        H  0.97177403  0.37922722  0.08356327     0.12700
H711        H  0.95005535  0.43720921  0.19105736     0.11500
H712        H  0.98185537  0.45113881  0.20619581     0.12600
H713        H  0.01601977  0.44692799  0.19669073     0.11700
H714        H  0.00090299  0.37816496  0.07313842     0.08800
H715        H  0.03447648  0.37094402  0.06953437     0.12000
H716        H  0.04303047  0.42444984  0.16578937     0.13900
C717        C  0.89571628  0.33287857  0.14771952    -0.01600
C718        C  0.87986311  0.31563609  0.15781350    -0.09600
C719        C  0.87965799  0.28493006  0.15249289    -0.18500
C720        C  0.89549953  0.27021678  0.13703108     0.03900
C721        C  0.91099080  0.28805692  0.12434288     0.18100
C722        C  0.91094611  0.31907579  0.12967310    -0.19900
C723        C  0.92675191  0.27467543  0.10768087    -0.21200
C724        C  0.92790886  0.24391396  0.10500343    -0.19700
C725        C  0.91351696  0.22567190  0.11959306     0.19500
C726        C  0.89688627  0.23848680  0.13502362     0.01600
C727        C  0.88275495  0.21890717  0.14895912    -0.14400
C728        C  0.88569101  0.18814495  0.14994634    -0.12100
C729        C  0.90281713  0.17561822  0.13747283     0.01200
C730        C  0.91609869  0.19468545  0.12012632    -0.24300
H731        H  0.86767328  0.32590591  0.17086752     0.09200
H732        H  0.86708057  0.27325170  0.16161324     0.12700
H733        H  0.92324885  0.33218214  0.12167624     0.11500
H734        H  0.93849402  0.28806376  0.09743572     0.12600
H735        H  0.94053435  0.23428934  0.09272616     0.11700
H736        H  0.86950368  0.22671086  0.16030436     0.08800
H737        H  0.87470798  0.17407868  0.16181324     0.12000
H738        H  0.92872333  0.18586606  0.10724582     0.13900
C739        C  0.94246623  0.59478965  0.90194778    -0.01600
C740        C  0.95335233  0.61538395  0.92138698    -0.09600
C741        C  0.97318065  0.61330070  0.92160623    -0.18500
C742        C  0.98263315  0.59047114  0.90207383     0.03900
C743        C  0.97132566  0.56795139  0.88581556     0.18100
C744        C  0.95148703  0.57005675  0.88646370    -0.19900
C745        C  0.97984068  0.54441475  0.86695634    -0.21200
C746        C  0.99937208  0.54390177  0.86142867    -0.19700
C747        C  0.01080363  0.56685726  0.87476297     0.19500
C748        C  0.00273185  0.58993008  0.89637444     0.01600
C749        C  0.01504011  0.61221279  0.90967817    -0.14400
C750        C  0.03427150  0.61246908  0.90007778    -0.12100
C751        C  0.04187764  0.59085709  0.87680759     0.01200
C752        C  0.03016293  0.56749642  0.86531541    -0.24300
H753        H  0.94667236  0.63408363  0.93474053     0.09200
H754        H  0.98069831  0.63054768  0.93598321     0.12700
H755        H  0.94305897  0.55319113  0.87289635     0.11500
H756        H  0.97126152  0.52694425  0.85502796     0.12600
H757        H  0.00548718  0.52599924  0.84545805     0.11700
H758        H  0.01016543  0.63018919  0.92673760     0.08800
H759        H  0.04296934  0.63037316  0.90990067     0.12000
H760        H  0.03603568  0.55008968  0.84817950     0.13900
C761        C  0.89989245  0.67228332  0.91095846    -0.01600
C762        C  0.91743444  0.68677614  0.91202225    -0.09600
C763        C  0.91842242  0.71768399  0.91459958    -0.18500
C764        C  0.90171892  0.73515891  0.91586124     0.03900
C765        C  0.88392278  0.72010418  0.91677057     0.18100
C766        C  0.88317806  0.68895245  0.91423253    -0.19900
C767        C  0.86697170  0.73629502  0.91843397    -0.21200
C768        C  0.86724276  0.76720414  0.91724506    -0.19700
C769        C  0.88447052  0.78268921  0.91424785     0.19500
C770        C  0.90199233  0.76693176  0.91447880     0.01600
C771        C  0.91898907  0.78363532  0.91139309    -0.14400
C772        C  0.91855309  0.81435439  0.90621526    -0.12100
C773        C  0.90131535  0.82955916  0.90467381     0.01200
C774        C  0.88429001  0.81375366  0.90935270    -0.24300
H775        H  0.93044377  0.67433547  0.90854198     0.09200
H776        H  0.93247258  0.72722638  0.91425152     0.12700
H777        H  0.86955234  0.67768386  0.91302706     0.11500
H778        H  0.85337080  0.72495601  0.91958410     0.12600
H779        H  0.85384889  0.77904692  0.91752507     0.11700
H780        H  0.93285242  0.77355584  0.91141628     0.08800
H781        H  0.93176160  0.82600346  0.90115639     0.12000
H782        H  0.87089365  0.82554389  0.90766946     0.13900
C783        C  0.88325221  0.47372170  0.42255483    -0.01600
C784        C  0.87909953  0.44374222  0.41647699    -0.09600
C785        C  0.87856621  0.43239369  0.38083755    -0.18500
C786        C  0.88245585  0.45070235  0.34985029     0.03900
C787        C  0.88657626  0.48119153  0.35610800     0.18100
C788        C  0.88667987  0.49246209  0.39216233    -0.19900
C789        C  0.89105217  0.50005057  0.32642896    -0.21200
C790        C  0.89229228  0.48898524  0.29076646    -0.19700
C791        C  0.88872897  0.45892459  0.28386786     0.19500
C792        C  0.88314111  0.43959644  0.31307975     0.01600
C793        C  0.87889095  0.40980708  0.30430274    -0.14400
C794        C  0.88150571  0.39906362  0.26865853    -0.12100
C795        C  0.88840920  0.41760240  0.24024940     0.01200
C796        C  0.89128091  0.44785420  0.24807445    -0.24300
H797        H  0.87622674  0.42885978  0.43945592     0.09200
H798        H  0.87550146  0.40902798  0.37863022     0.12700
H799        H  0.88993466  0.51571748  0.39659717     0.11500
H800        H  0.89412199  0.52334491  0.33095306     0.12600
H801        H  0.89634285  0.50394824  0.26851226     0.11700
H802        H  0.87370383  0.39404560  0.32447675     0.08800
H803        H  0.87840646  0.37592354  0.26438529     0.12000
H804        H  0.89626594  0.46263468  0.22631125     0.13900
C805        C  0.88280077  0.53729919  0.63501868    -0.01600
C806        C  0.88324780  0.56800135  0.64091076    -0.09600
C807        C  0.88294642  0.57947750  0.67651003    -0.18500
C808        C  0.88223756  0.56050301  0.70773958     0.03900
C809        C  0.88136017  0.52936293  0.70166633     0.18100
C810        C  0.88165246  0.51809509  0.66559333    -0.19900
C811        C  0.88045929  0.50963792  0.73164563    -0.21200
C812        C  0.88091564  0.52014107  0.76762841    -0.19700
C813        C  0.88232307  0.55062587  0.77452593     0.19500
C814        C  0.88277051  0.57125707  0.74470624     0.01600
C815        C  0.88453088  0.60169065  0.75315323    -0.14400
C816        C  0.88658907  0.61113008  0.78941626    -0.12100
C817        C  0.88636708  0.59083044  0.81905075     0.01200
C818        C  0.88411725  0.56049527  0.81106146    -0.24300
H819        H  0.88396899  0.58338708  0.61783796     0.09200
H820        H  0.88336729  0.60331905  0.67852217     0.12700
H821        H  0.88111665  0.49428797  0.66138049     0.11500
H822        H  0.87966480  0.48588061  0.72723844     0.12600
H823        H  0.88052175  0.50425510  0.79022209     0.11700
H824        H  0.88519473  0.61880072  0.73228688     0.08800
H825        H  0.88947434  0.63442780  0.79349517     0.12000
H826        H  0.88484121  0.54427282  0.83322973     0.13900
C827        C  0.09754283  0.47340951  0.37741562    -0.01600
C828        C  0.10116421  0.49121208  0.34621582    -0.09600
C829        C  0.09977956  0.47948957  0.31053425    -0.18500
C830        C  0.09445669  0.44949152  0.30490277     0.03900
C831        C  0.09068516  0.43172821  0.33673835     0.18100
C832        C  0.09241202  0.44364456  0.37225089    -0.19900
C833        C  0.08503417  0.40210123  0.33311972    -0.21200
C834        C  0.08297397  0.38956951  0.29852159    -0.19700
C835        C  0.08671960  0.40621675  0.26658929     0.19500
C836        C  0.09257661  0.43640067  0.26909018     0.01600
C837        C  0.09622924  0.45192915  0.23563416    -0.14400
C838        C  0.09415404  0.43796932  0.20136398    -0.12100
C839        C  0.08853399  0.40814556  0.19930191     0.01200
C840        C  0.08468063  0.39260298  0.23212728    -0.24300
H841        H  0.10522146  0.51427500  0.34937565     0.09200
H842        H  0.10282338  0.49445395  0.28791367     0.12700
H843        H  0.08945687  0.42964924  0.39607429     0.11500
H844        H  0.08208618  0.38850802  0.35728594     0.12600
H845        H  0.07849886  0.36656897  0.29674313     0.11700
H846        H  0.10082824  0.47478482  0.23510718     0.08800
H847        H  0.09732606  0.45041474  0.17639922     0.12000
H848        H  0.07990637  0.36971763  0.23090617     0.13900
C849        C  0.10328346  0.53722318  0.59046101    -0.01600
C850        C  0.09848801  0.56680608  0.59780339    -0.09600
C851        C  0.09636952  0.57671787  0.63406888    -0.18500
C852        C  0.09904341  0.55723515  0.66439454     0.03900
C853        C  0.10458674  0.52753827  0.65675312     0.18100
C854        C  0.10658697  0.51786199  0.62017930    -0.19900
C855        C  0.10784172  0.50747263  0.68565206    -0.21200
C856        C  0.10562649  0.51618206  0.72211094    -0.19700
C857        C  0.09992927  0.54511000  0.73063899     0.19500
C858        C  0.09637884  0.56601298  0.70195732     0.01600
C859        C  0.08980906  0.59444849  0.71218430    -0.14400
C860        C  0.08724939  0.60189255  0.74925032    -0.12100
C861        C  0.09165534  0.58174790  0.77772847     0.01200
C862        C  0.09747850  0.55301188  0.76780990    -0.24300
H863        H  0.09588854  0.58226897  0.57538156     0.09200
H864        H  0.09257304  0.59971519  0.63744234     0.12700
H865        H  0.11047124  0.49498365  0.61487198     0.11500
H866        H  0.11210120  0.48482322  0.68001948     0.12600
H867        H  0.10826523  0.50006799  0.74382582     0.11700
H868        H  0.08611315  0.61124136  0.69217205     0.08800
H869        H  0.08154637  0.62358616  0.75558634     0.12000
H870        H  0.09957575  0.53619304  0.78881649     0.13900
C871        C  0.04315575  0.50708943  0.49793548    -0.01600
C872        C  0.03422497  0.48201477  0.51340808    -0.09600
C873        C  0.01475797  0.48177616  0.52088660    -0.18500
C874        C  0.00333031  0.50677492  0.51303519     0.03900
C875        C  0.01241574  0.53239607  0.49786670     0.18100
C876        C  0.03212803  0.53236771  0.49055051    -0.19900
C877        C  0.00172868  0.55779211  0.48977979    -0.21200
C878        C  0.98214329  0.55805634  0.49550150    -0.19700
C879        C  0.97271024  0.53294674  0.50952178     0.19500
C880        C  0.98320046  0.50708013  0.51905231     0.01600
C881        C  0.97301042  0.48246639  0.53353740    -0.14400
C882        C  0.95324572  0.48311438  0.53700990    -0.12100
C883        C  0.94285709  0.50825429  0.52640723     0.01200
C884        C  0.95277499  0.53334639  0.51334626    -0.24300
H885        H  0.04233289  0.46225359  0.51988707     0.09200
H886        H  0.00910610  0.46154764  0.53262078     0.12700
H887        H  0.03885847  0.55204497  0.47898954     0.11500
H888        H  0.00853270  0.57749385  0.47847437     0.12600
H889        H  0.97427588  0.57794084  0.48842211     0.11700
H890        H  0.97983158  0.46216919  0.54200231     0.08800
H891        H  0.94604573  0.46350097  0.54754652     0.12000
H892        H  0.94495130  0.55305826  0.50534865     0.13900
C893        C  0.72470661  0.49970372  0.53981446    -0.01600
C894        C  0.73437835  0.47260507  0.54062899    -0.09600
C895        C  0.75420548  0.47183163  0.54064557    -0.18500
C896        C  0.76502071  0.49835704  0.53901201     0.03900
C897        C  0.75505262  0.52580490  0.53843621     0.18100
C898        C  0.73512626  0.52622976  0.53960747    -0.19900
C899        C  0.76498756  0.55267664  0.53550699    -0.21200
C900        C  0.78466198  0.55292107  0.53229185    -0.19700
C901        C  0.79491424  0.52634021  0.53286919     0.19500
C902        C  0.78530213  0.49867524  0.53698842     0.01600
C903        C  0.79643794  0.47260019  0.53881834    -0.14400
C904        C  0.81622353  0.47399296  0.53631194    -0.12100
C905        C  0.82558012  0.50127523  0.53157271     0.01200
C906        C  0.81479356  0.52734136  0.52965958    -0.24300
H907        H  0.72656234  0.45184461  0.54102856     0.09200
H908        H  0.76060367  0.45012010  0.54090924     0.12700
H909        H  0.72771712  0.54730123  0.53851557     0.11500
H910        H  0.75745926  0.57365239  0.53496853     0.12600
H911        H  0.79192115  0.57408257  0.52944592     0.11700
H912        H  0.79033225  0.45082328  0.54265313     0.08800
H913        H  0.82423635  0.45352130  0.53807278     0.12000
H914        H  0.82190941  0.54860186  0.52644703     0.13900
C915        C  0.73260691  0.00538703  0.52152551    -0.01600
C916        C  0.74169759  0.97779091  0.52270685    -0.09600
C917        C  0.76138806  0.97573033  0.51924222    -0.18500
C918        C  0.77278560  0.00144287  0.51493567     0.03900
C919        C  0.76352258  0.02948403  0.51407597     0.18100
C920        C  0.74360550  0.03117705  0.51689017    -0.19900
C921        C  0.77421285  0.05566163  0.51093199    -0.21200
C922        C  0.79396747  0.05464640  0.50954631    -0.19700
C923        C  0.80350844  0.02740164  0.51060479     0.19500
C924        C  0.79304009  0.00036289  0.51234178     0.01600
C925        C  0.80332937  0.97341922  0.51171107    -0.14400
C926        C  0.82314256  0.97336909  0.51097684    -0.12100
C927        C  0.83340612  0.00003114  0.51111208     0.01200
C928        C  0.82349422  0.02701443  0.51037794    -0.24300
H929        H  0.73353891  0.95749938  0.52579790     0.09200
H930        H  0.76723348  0.95367201  0.52058899     0.12700
H931        H  0.73669291  0.05266697  0.51623053     0.11500
H932        H  0.76726034  0.07711351  0.51019289     0.12600
H933        H  0.80184362  0.07533500  0.50782474     0.11700
H934        H  0.79652702  0.95196798  0.51179441     0.08800
H935        H  0.83047304  0.95223442  0.51115174     0.12000
H936        H  0.83134776  0.04776897  0.50970925     0.13900
C937        C  0.59862969  0.17479183  0.37928462    -0.01600
C938        C  0.58871769  0.19051915  0.35199156    -0.09600
C939        C  0.58965559  0.22110240  0.34936486    -0.18500
C940        C  0.60015777  0.23784843  0.37487724     0.03900
C941        C  0.61025407  0.22231658  0.40284917     0.18100
C942        C  0.60966673  0.19092823  0.40455773    -0.19900
C943        C  0.62029422  0.23836789  0.42948098    -0.21200
C944        C  0.61991277  0.26939841  0.42961573    -0.19700
C945        C  0.60973153  0.28520926  0.40276637     0.19500
C946        C  0.60018941  0.26948182  0.37444732     0.01600
C947        C  0.59056515  0.28606305  0.34729791    -0.14400
C948        C  0.58929992  0.31661580  0.34945154    -0.12100
C949        C  0.59790556  0.33243214  0.37808557     0.01200
C950        C  0.60857169  0.31653308  0.40439665    -0.24300
H951        H  0.57980257  0.17886917  0.33252037     0.09200
H952        H  0.58133056  0.23084233  0.32756809     0.12700
H953        H  0.61716925  0.17951567  0.42637392     0.11500
H954        H  0.62809525  0.22684624  0.45090962     0.12600
H955        H  0.62741524  0.28108928  0.45116176     0.11700
H956        H  0.58356018  0.27622739  0.32398772     0.08800
H957        H  0.58107323  0.32815115  0.32864220     0.12000
H958        H  0.61545840  0.32802573  0.42674837     0.13900
C959        C  0.58828784  0.83482273  0.63116837    -0.01600
C960        C  0.60559790  0.81966978  0.63254138    -0.09600
C961        C  0.60623464  0.78874871  0.62916044    -0.18500
C962        C  0.58937834  0.77186851  0.62491984     0.03900
C963        C  0.57188633  0.78756927  0.62264139     0.18100
C964        C  0.57151422  0.81870732  0.62583837    -0.19900
C965        C  0.55478509  0.77204408  0.61838056    -0.21200
C966        C  0.55457979  0.74117727  0.61694299    -0.19700
C967        C  0.57144047  0.72496682  0.62024526     0.19500
C968        C  0.58912960  0.74003934  0.62408039     0.01600
C969        C  0.60564926  0.72251455  0.62846714    -0.14400
C970        C  0.60447014  0.69155578  0.63078673    -0.12100
C971        C  0.58695365  0.67695436  0.62796575     0.01200
C972        C  0.57057314  0.69372197  0.62163785    -0.24300
H973        H  0.61866988  0.83181336  0.63722771     0.09200
H974        H  0.62008764  0.77869344  0.63070961     0.12700
H975        H  0.55803680  0.83023464  0.62625103     0.11500
H976        H  0.54141494  0.78386385  0.61658947     0.12600
H977        H  0.54105379  0.72986244  0.61412332     0.11700
H978        H  0.61959118  0.73207375  0.63163411     0.08800
H979        H  0.61725371  0.67892405  0.63623767     0.12000
H980        H  0.55693472  0.68260312  0.62067343     0.13900
C981        C  0.33030013  0.00677160  0.97569090    -0.01600
C982        C  0.31932891  0.03263053  0.97344774    -0.09600
C983        C  0.29945471  0.03107641  0.97400972    -0.18500
C984        C  0.28989369  0.00338815  0.97648471     0.03900
C985        C  0.30116424  0.97725689  0.97812567     0.18100
C986        C  0.32106073  0.97919601  0.97798091    -0.19900
C987        C  0.29255518  0.94923705  0.98004954    -0.21200
C988        C  0.27290154  0.94650714  0.98092939    -0.19700
C989        C  0.26135692  0.97173901  0.98022829     0.19500
C990        C  0.26963449  0.00058319  0.97780233     0.01600
C991        C  0.25724832  0.02527775  0.97750053    -0.14400
C992        C  0.23760429  0.02147363  0.98086316    -0.12100
C993        C  0.22960652  0.99304096  0.98396660     0.01200
C994        C  0.24154982  0.96825053  0.98279975    -0.24300
H995        H  0.32613189  0.05420587  0.97166223     0.09200
H996        H  0.29199981  0.05192028  0.97246082     0.12700
H997        H  0.32940594  0.95900159  0.97935510     0.11500
H998        H  0.30109926  0.92925049  0.98109274     0.12600
H999        H  0.26668889  0.92448236  0.98270339     0.11700
H1000       H  0.26229975  0.04783588  0.97533906     0.08800
H1001       H  0.22861963  0.04096934  0.98103893     0.12000
H1002       H  0.23547774  0.94616433  0.98529861     0.13900
C1003       C  0.76618665  0.00060944  0.02564604    -0.01600
C1004       C  0.75731088  0.02800252  0.01975896    -0.09600
C1005       C  0.73758486  0.03003132  0.01770255    -0.18500
C1006       C  0.72595350  0.00454395  0.02171148     0.03900
C1007       C  0.73500874  0.97683352  0.02844949     0.18100
C1008       C  0.75493665  0.97508111  0.03007425    -0.19900
C1009       C  0.72412316  0.95103746  0.03342472    -0.21200
C1010       C  0.70439806  0.95208464  0.03148283    -0.19700
C1011       C  0.69506636  0.97891247  0.02422893     0.19500
C1012       C  0.70570261  0.00554571  0.01919695     0.01600
C1013       C  0.69559342  0.03197079  0.01154585    -0.14400
C1014       C  0.67582131  0.03192939  0.00903202    -0.12100
C1015       C  0.66535892  0.00570233  0.01419554     0.01200
C1016       C  0.67512111  0.97923830  0.02184373    -0.24300
H1017       H  0.76565300  0.04804438  0.01600476     0.09200
H1018       H  0.73193101  0.05191139  0.01292480     0.12700
H1019       H  0.76167577  0.95382508  0.03513605     0.11500
H1020       H  0.73091521  0.92987233  0.03879355     0.12600
H1021       H  0.69638610  0.93170525  0.03542197     0.11700
H1022       H  0.70250399  0.05307234  0.00714746     0.08800
H1023       H  0.66869032  0.05271487  0.00317741     0.12000
H1024       H  0.66720076  0.95876676  0.02581800     0.13900
C1025       C  0.60406711  0.03392017  0.11832247    -0.01600
C1026       C  0.60906657  0.01451856  0.14709897    -0.09600
C1027       C  0.60689046  0.02290244  0.18402618    -0.18500
C1028       C  0.59931724  0.05097033  0.19334112     0.03900
C1029       C  0.59414006  0.07036387  0.16386594     0.18100
C1030       C  0.59674106  0.06186360  0.12701893    -0.19900
C1031       C  0.58628292  0.09819007  0.17119855    -0.21200
C1032       C  0.58371104  0.10753412  0.20722037    -0.19700
C1033       C  0.58906634  0.08938249  0.23682296     0.19500
C1034       C  0.59679427  0.06071631  0.23061634     0.01600
C1035       C  0.60184131  0.04348391  0.26201842    -0.14400
C1036       C  0.60013056  0.05498811  0.29783430    -0.12100
C1037       C  0.59332216  0.08379779  0.30325878     0.01200
C1038       C  0.58716968  0.10028971  0.27266404    -0.24300
H1039       H  0.61475851  0.99274406  0.14103430     0.09200
H1040       H  0.61113917  0.00692386  0.20463926     0.12700
H1041       H  0.59260869  0.07686492  0.10495718     0.11500
H1042       H  0.58218054  0.11293683  0.14887712     0.12600
H1043       H  0.57775632  0.12937527  0.21195206     0.11700
H1044       H  0.60756192  0.02138716  0.25969789     0.08800
H1045       H  0.60483007  0.04180331  0.32114669     0.12000
H1046       H  0.58131108  0.12230193  0.27672806     0.13900
C1047       C  0.60634478  0.97999582  0.90136603    -0.01600
C1048       C  0.61185092  0.95078527  0.89397501    -0.09600
C1049       C  0.60957200  0.93865873  0.85907121    -0.18500
C1050       C  0.60144824  0.95533774  0.83004011     0.03900
C1051       C  0.59587613  0.98507555  0.83746082     0.18100
C1052       C  0.59864524  0.99729076  0.87277334    -0.19900
C1053       C  0.58717498  0.00209444  0.80983873    -0.21200
C1054       C  0.58381236  0.99014230  0.77509816    -0.19700
C1055       C  0.58935686  0.96103494  0.76688602     0.19500
C1056       C  0.59840072  0.94334875  0.79415112     0.01600
C1057       C  0.60420958  0.91446899  0.78421973    -0.14400
C1058       C  0.60086916  0.90334945  0.74908044    -0.12100
C1059       C  0.59144968  0.92036450  0.72225693     0.01200
C1060       C  0.58605436  0.94953157  0.73146053    -0.24300
H1061       H  0.61778842  0.93694355  0.91557010     0.09200
H1062       H  0.61392702  0.91589928  0.85610780     0.12700
H1063       H  0.59408420  0.01980715  0.87839366     0.11500
H1064       H  0.58276052  0.02470510  0.81525257     0.12600
H1065       H  0.57690707  0.00381858  0.75444805     0.11700
H1066       H  0.61172416  0.89993748  0.80274255     0.08800
H1067       H  0.60633186  0.88153092  0.74328728     0.12000
H1068       H  0.57923854  0.96335559  0.71082662     0.13900
C1069       C  0.54817832  0.01134001  0.00251205    -0.01600
C1070       C  0.53931733  0.03665489  0.98788356    -0.09600
C1071       C  0.51969485  0.03730068  0.98220258    -0.18500
C1072       C  0.50813738  0.01249310  0.99107898     0.03900
C1073       C  0.51711259  0.98716971  0.00688086     0.18100
C1074       C  0.53689724  0.98677083  0.01227587    -0.19900
C1075       C  0.50630312  0.96228437  0.01708406    -0.21200
C1076       C  0.48673720  0.96194649  0.01198059    -0.19700
C1077       C  0.47747871  0.98634945  0.99614352     0.19500
C1078       C  0.48802852  0.01190425  0.98510500     0.01600
C1079       C  0.47795056  0.03563582  0.96852258    -0.14400
C1080       C  0.45821043  0.03436154  0.96417756    -0.12100
C1081       C  0.44780400  0.00944222  0.97601640     0.01200
C1082       C  0.45765435  0.98536820  0.99157175    -0.24300
H1083       H  0.54762324  0.05605483  0.98025095     0.09200
H1084       H  0.51401105  0.05756520  0.97082303     0.12700
H1085       H  0.54353009  0.96712533  0.02386099     0.11500
H1086       H  0.51302395  0.94294728  0.02923730     0.12600
H1087       H  0.47878261  0.94237842  0.02041856     0.11700
H1088       H  0.48489867  0.05554446  0.95868428     0.08800
H1089       H  0.45104251  0.05320036  0.95184800     0.12000
H1090       H  0.44984231  0.96585877  0.00074089     0.13900
C1091       C  0.26755493  0.00007488  0.47209711    -0.01600
C1092       C  0.25757634  0.02620143  0.47928396    -0.09600
C1093       C  0.23802392  0.02549788  0.48555149    -0.18500
C1094       C  0.22773295  0.99846955  0.48421955     0.03900
C1095       C  0.23794393  0.97202862  0.47639380     0.18100
C1096       C  0.25768512  0.97302896  0.47078362    -0.19900
C1097       C  0.22838469  0.94480417  0.47397764    -0.21200
C1098       C  0.20876790  0.94332102  0.47852580    -0.19700
C1099       C  0.19827699  0.96897191  0.48603519     0.19500
C1100       C  0.20766408  0.99682432  0.48968313     0.01600
C1101       C  0.19651889  0.02190218  0.49830745    -0.14400
C1102       C  0.17687429  0.01964638  0.50180971    -0.12100
C1103       C  0.16757307  0.99243049  0.49687816     0.01200
C1104       C  0.17839599  0.96704140  0.48946025    -0.24300
H1105       H  0.26498238  0.04727004  0.48086740     0.09200
H1106       H  0.23142037  0.04656502  0.49106317     0.12700
H1107       H  0.26536455  0.95272867  0.46493244     0.11500
H1108       H  0.23610699  0.92456512  0.46807173     0.12600
H1109       H  0.20174279  0.92198598  0.47596570     0.11700
H1110       H  0.20248108  0.04367369  0.50239277     0.08800
H1111       H  0.16889794  0.03960866  0.50779396     0.12000
H1112       H  0.17134665  0.94580357  0.48600893     0.13900
C1113       C  0.45137388  0.10098924  0.36000526    -0.01600
C1114       C  0.45871733  0.11591647  0.39061216    -0.09600
C1115       C  0.47751894  0.11155982  0.40176150    -0.18500
C1116       C  0.48988314  0.09264121  0.38190690     0.03900
C1117       C  0.48220995  0.07658156  0.35189527     0.18100
C1118       C  0.46307633  0.08017121  0.34205772    -0.19900
C1119       C  0.49391434  0.05823047  0.33054597    -0.21200
C1120       C  0.51342522  0.05741468  0.33644720    -0.19700
C1121       C  0.52160502  0.07428789  0.36449617     0.19500
C1122       C  0.50982214  0.09076961  0.38896329     0.01600
C1123       C  0.51869922  0.10612661  0.41803983    -0.14400
C1124       C  0.53844392  0.10842046  0.41958833    -0.12100
C1125       C  0.54994375  0.09511297  0.39272040     0.01200
C1126       C  0.54153334  0.07645801  0.36669956    -0.24300
H1127       H  0.45025371  0.13200849  0.40533761     0.09200
H1128       H  0.48221209  0.12451904  0.42488697     0.12700
H1129       H  0.45757730  0.06720790  0.31944907     0.06700
H1130       H  0.48809534  0.04565834  0.30782925     0.12600
H1131       H  0.52224238  0.04434550  0.31811526     0.11700
H1132       H  0.51077853  0.11758706  0.43909844     0.08800
H1133       H  0.54474734  0.12205898  0.44080276     0.12000
H1134       H  0.55037362  0.06577635  0.34610922     0.13900
C1135       C  0.39017605  0.04309259  0.07954059    -0.01600
C1136       C  0.38837084  0.07371642  0.08538777    -0.09600
C1137       C  0.38972148  0.08555842  0.12083733    -0.18500
C1138       C  0.39312904  0.06705457  0.15179486     0.03900
C1139       C  0.39481692  0.03598786  0.14567872     0.18100
C1140       C  0.39315636  0.02436844  0.10998664    -0.19900
C1141       C  0.39850690  0.01665511  0.17512640    -0.21200
C1142       C  0.40093871  0.02752816  0.21053914    -0.19700
C1143       C  0.39948316  0.05796561  0.21749280     0.19500
C1144       C  0.39527616  0.07817776  0.18844422     0.01600
C1145       C  0.39364704  0.10859870  0.19738691    -0.14400
C1146       C  0.39647679  0.11854656  0.23343373    -0.12100
C1147       C  0.40105227  0.09856814  0.26201400     0.01200
C1148       C  0.40244987  0.06826027  0.25342845    -0.24300
H1149       H  0.38600205  0.08871811  0.06239220     0.09200
H1150       H  0.38831478  0.10930682  0.12299246     0.12700
H1151       H  0.39462082  0.00065040  0.10585838     0.11500
H1152       H  0.39979652  0.99296277  0.17065506     0.12600
H1153       H  0.40405665  0.01199700  0.23265368     0.11700
H1154       H  0.39031827  0.12534377  0.17707452     0.08800
H1155       H  0.39546621  0.14211218  0.23801431     0.12000
H1156       H  0.40614586  0.05254172  0.27501812     0.13900
C1157       C  0.54464564  0.90860025  0.61859779    -0.01600
C1158       C  0.53683954  0.88574012  0.59752558    -0.09600
C1159       C  0.51754061  0.88593962  0.58859242    -0.18500
C1160       C  0.50560609  0.90935424  0.60031347     0.03900
C1161       C  0.51422059  0.93407566  0.61783445     0.18100
C1162       C  0.53352277  0.93343543  0.62680615    -0.19900
C1163       C  0.50336060  0.95869086  0.62800115    -0.21200
C1164       C  0.48381785  0.95854237  0.62328632    -0.19700
C1165       C  0.47469785  0.93346798  0.60919860     0.19500
C1166       C  0.48542131  0.90868226  0.59682467     0.01600
C1167       C  0.47536483  0.88358482  0.58393472    -0.14400
C1168       C  0.45553467  0.88254243  0.58553289    -0.12100
C1169       C  0.44521657  0.90641126  0.59959502     0.01200
C1170       C  0.45483087  0.93231383  0.60972412    -0.24300
H1171       H  0.54538882  0.86694236  0.58943647     0.09200
H1172       H  0.51229712  0.86722283  0.57326186     0.12700
H1173       H  0.53975570  0.95184082  0.64168230     0.11500
H1174       H  0.50994959  0.97781367  0.64073919     0.12600
H1175       H  0.47569379  0.97757129  0.63245186     0.11700
H1176       H  0.48241975  0.86383988  0.57436016     0.08800
H1177       H  0.44840589  0.86233911  0.57778899     0.12000
H1178       H  0.44680122  0.95101486  0.62023637     0.13900
C1179       C  0.39039220  0.91898775  0.68521664    -0.01600
C1180       C  0.38693862  0.89926086  0.71477763    -0.09600
C1181       C  0.38480060  0.90952087  0.75082975    -0.18500
C1182       C  0.38640017  0.94003555  0.75909401     0.03900
C1183       C  0.38954645  0.96009877  0.72924635     0.18100
C1184       C  0.39146767  0.94951337  0.69301092    -0.19900
C1185       C  0.39151578  0.99054416  0.73586833    -0.21200
C1186       C  0.39099272  0.00143130  0.77166482    -0.19700
C1187       C  0.38842868  0.98216841  0.80176386     0.19500
C1188       C  0.38575836  0.95123790  0.79594805     0.01600
C1189       C  0.38300626  0.93285781  0.82736796    -0.14400
C1190       C  0.38365066  0.94453412  0.86296297    -0.12100
C1191       C  0.38684660  0.97489773  0.86859370     0.01200
C1192       C  0.38886893  0.99364777  0.83773141    -0.24300
H1193       H  0.38684184  0.87552979  0.71105218     0.09200
H1194       H  0.38259359  0.89279136  0.77181073     0.12700
H1195       H  0.39473992  0.96505295  0.67087948     0.11500
H1196       H  0.39385920  0.00600473  0.71323766     0.12600
H1197       H  0.39290877  0.02506137  0.77587002     0.11700
H1198       H  0.38047364  0.90931592  0.82544529     0.08800
H1199       H  0.38166935  0.92960635  0.88623562     0.12000
H1200       H  0.39115669  0.01723839  0.84166107     0.13900
C1201       C  0.16023770  0.50383429  0.47908579    -0.01600
C1202       C  0.16963898  0.47853967  0.49238800    -0.09600
C1203       C  0.18941192  0.47748200  0.49401079    -0.18500
C1204       C  0.20064068  0.50187107  0.48230770     0.03900
C1205       C  0.19111510  0.52764151  0.46909818     0.18100
C1206       C  0.17112440  0.52829932  0.46725938    -0.19900
C1207       C  0.20159534  0.55275005  0.45833324    -0.21200
C1208       C  0.22132486  0.55299379  0.46091231    -0.19700
C1209       C  0.23111817  0.52786727  0.47341674     0.19500
C1210       C  0.22094248  0.50171687  0.48363066     0.01600
C1211       C  0.23156099  0.47643877  0.49427258    -0.14400
C1212       C  0.25137922  0.47719552  0.49487291    -0.12100
C1213       C  0.26127112  0.50320442  0.48572940     0.01200
C1214       C  0.25107753  0.52857315  0.47530782    -0.24300
H1215       H  0.16166560  0.45939727  0.50212445     0.09200
H1216       H  0.19542846  0.45740450  0.50520673     0.12700
H1217       H  0.16404499  0.54809031  0.45717957     0.11500
H1218       H  0.19446485  0.57249516  0.44827805     0.12600
H1219       H  0.22899371  0.57290954  0.45275228     0.11700
H1220       H  0.22502643  0.45556245  0.50166473     0.08800
H1221       H  0.25902605  0.45736289  0.50298753     0.12000
H1222       H  0.25873372  0.54864196  0.46765039     0.13900
C1223       C  0.44674188  0.41208060  0.37268823    -0.01600
C1224       C  0.45494396  0.39258697  0.39829404    -0.09600
C1225       C  0.47446631  0.39348761  0.40542210    -0.18500
C1226       C  0.48656548  0.41391842  0.38681589     0.03900
C1227       C  0.47811488  0.43444131  0.36205006     0.18100
C1228       C  0.45840499  0.43397586  0.35622028    -0.19900
C1229       C  0.48948147  0.45436135  0.34177784    -0.21200
C1230       C  0.50921567  0.45295771  0.34369136    -0.19700
C1231       C  0.51804661  0.43239741  0.36704631     0.19500
C1232       C  0.50679562  0.41369157  0.39035562     0.01600
C1233       C  0.51632593  0.39494152  0.41543309    -0.14400
C1234       C  0.53604775  0.39248868  0.41457215    -0.12100
C1235       C  0.54699673  0.40843931  0.38870504     0.01200
C1236       C  0.53800978  0.42953621  0.36626915    -0.24300
H1237       H  0.44648921  0.37576621  0.41204378     0.09200
H1238       H  0.47977739  0.37697741  0.42436981     0.12700
H1239       H  0.45231651  0.45022924  0.33761691     0.11500
H1240       H  0.48309133  0.47021757  0.32297345     0.12600
H1241       H  0.51762067  0.46769162  0.32631296     0.11700
H1242       H  0.50891696  0.38152950  0.43564639     0.08800
H1243       H  0.54275530  0.37706481  0.43348048     0.12000
H1244       H  0.54635984  0.44242018  0.34671046     0.13900
C1245       C  0.40609733  0.17872079  0.36067025    -0.01600
C1246       C  0.42190001  0.19403446  0.37413241    -0.09600
C1247       C  0.42116700  0.22484541  0.37983743    -0.18500
C1248       C  0.40448173  0.24135108  0.37211746     0.03900
C1249       C  0.38820881  0.22530325  0.36026577     0.18100
C1250       C  0.38914087  0.19440830  0.35491645    -0.19900
C1251       C  0.37133300  0.24034030  0.35208049    -0.21200
C1252       C  0.37053275  0.27119047  0.35334673    -0.19700
C1253       C  0.38653135  0.28782757  0.36322325     0.19500
C1254       C  0.40354568  0.27319015  0.37401162     0.01600
C1255       C  0.41904476  0.29120555  0.38483757    -0.14400
C1256       C  0.41811798  0.32227100  0.38250675    -0.12100
C1257       C  0.40181428  0.33646794  0.36938621     0.01200
C1258       C  0.38584524  0.31906428  0.36091591    -0.24300
H1259       H  0.43518598  0.18242056  0.37833682     0.09200
H1260       H  0.43408870  0.23528506  0.38900330     0.12700
H1261       H  0.37683809  0.18263200  0.34450368     0.11500
H1262       H  0.35882344  0.22820259  0.34340606     0.12600
H1263       H  0.35743317  0.28215318  0.34561185     0.11700
H1264       H  0.43227477  0.28190747  0.39422185     0.08800
H1265       H  0.43064192  0.33510328  0.38894955     0.12000
H1266       H  0.37305178  0.32988026  0.35113279     0.13900
C1267       C  0.44123504  0.60273709  0.60990253    -0.01600
C1268       C  0.45006352  0.57642164  0.62128772    -0.09600
C1269       C  0.46974531  0.57350386  0.61962120    -0.18500
C1270       C  0.48130934  0.59725577  0.60707199     0.03900
C1271       C  0.47216975  0.62281803  0.59233828     0.18100
C1272       C  0.45225224  0.62518095  0.59356577    -0.19900
C1273       C  0.48300025  0.64654451  0.57844457    -0.21200
C1274       C  0.50272210  0.64623641  0.58096603    -0.19700
C1275       C  0.51203510  0.62243415  0.59802796     0.19500
C1276       C  0.50150025  0.59727016  0.61056022     0.01600
C1277       C  0.51150759  0.57409290  0.62829272    -0.14400
C1278       C  0.53079739  0.57691577  0.63588576    -0.12100
C1279       C  0.54086560  0.60250187  0.62540265     0.01200
C1280       C  0.53166210  0.62443394  0.60468073    -0.24300
H1281       H  0.44170225  0.55836211  0.63289354     0.09200
H1282       H  0.47545764  0.55277709  0.62952043     0.12700
H1283       H  0.44552493  0.64538085  0.58430277     0.11500
H1284       H  0.47614191  0.66591915  0.56668495     0.12600
H1285       H  0.51067085  0.66537104  0.57106331     0.11700
H1286       H  0.50472405  0.55407294  0.63816096     0.08800
H1287       H  0.53780403  0.55920902  0.65090054     0.12000
H1288       H  0.53944732  0.64401188  0.59589210     0.13900
C1289       C  0.39543765  0.67800620  0.60066038    -0.01600
C1290       C  0.41066137  0.69160856  0.58202226    -0.09600
C1291       C  0.41071322  0.72228997  0.57500898    -0.18500
C1292       C  0.39530305  0.74034769  0.58620275     0.03900
C1293       C  0.37914178  0.72588604  0.60185620     0.18100
C1294       C  0.37935442  0.69515458  0.60883348    -0.19900
C1295       C  0.36315538  0.74234935  0.61214335    -0.21200
C1296       C  0.36336067  0.77314554  0.60983829    -0.19700
C1297       C  0.37961487  0.78824018  0.59748708     0.19500
C1298       C  0.39559864  0.77218441  0.58419881     0.01600
C1299       C  0.41146179  0.78883710  0.57145167    -0.14400
C1300       C  0.41201991  0.81984241  0.57503032    -0.12100
C1301       C  0.39692929  0.83515922  0.59149726     0.01200
C1302       C  0.38034219  0.81929230  0.60052391    -0.24300
H1303       H  0.42299259  0.67886506  0.57435104     0.09200
H1304       H  0.42321895  0.73137179  0.56177962     0.12700
H1305       H  0.36716006  0.68469573  0.62199865     0.11500
H1306       H  0.35064671  0.73139508  0.62338412     0.12600
H1307       H  0.35101140  0.78528751  0.61938712     0.11700
H1308       H  0.42393603  0.77842950  0.56001823     0.08800
H1309       H  0.42472304  0.83152818  0.56664815     0.12000
H1310       H  0.36825277  0.83103064  0.61196760     0.13900
C1311       C  0.32664315  0.50618154  0.98912043    -0.01600
C1312       C  0.31565921  0.53204192  0.98988453    -0.09600
C1313       C  0.29588487  0.53052767  0.98872442    -0.18500
C1314       C  0.28635815  0.50286335  0.98711558     0.03900
C1315       C  0.29754582  0.47662003  0.98741486     0.18100
C1316       C  0.31748322  0.47850212  0.98786465    -0.19900
C1317       C  0.28876123  0.44867591  0.98760450    -0.21200
C1318       C  0.26903978  0.44621145  0.98790230    -0.19700
C1319       C  0.25762015  0.47162558  0.98698197     0.19500
C1320       C  0.26614646  0.50031106  0.98575052     0.01600
C1321       C  0.25406974  0.52522212  0.98282661    -0.14400
C1322       C  0.23440529  0.52183619  0.98199031    -0.12100
C1323       C  0.22601349  0.49366124  0.98440854     0.01200
C1324       C  0.23769852  0.46857729  0.98698386    -0.24300
H1325       H  0.32238372  0.55368592  0.99105976     0.09200
H1326       H  0.28849279  0.55142645  0.98970008     0.12700
H1327       H  0.32587385  0.45832980  0.98779072     0.11500
H1328       H  0.29720364  0.42857014  0.98798494     0.12600
H1329       H  0.26267690  0.42426566  0.98852884     0.11700
H1330       H  0.25934245  0.54764298  0.98063349     0.08800
H1331       H  0.22570862  0.54158580  0.98002006     0.12000
H1332       H  0.23129327  0.44666389  0.98823423     0.13900
C1333       C  0.38588714  0.48168886  0.09792666    -0.01600
C1334       C  0.38415117  0.50125191  0.12765157    -0.09600
C1335       C  0.38518743  0.49086690  0.16400922    -0.18500
C1336       C  0.38812955  0.46038548  0.17185057     0.03900
C1337       C  0.38940853  0.44057448  0.14156489     0.18100
C1338       C  0.38831315  0.45131195  0.10521412    -0.19900
C1339       C  0.39195463  0.41013277  0.14764955    -0.21200
C1340       C  0.39343070  0.39886404  0.18326226    -0.19700
C1341       C  0.39256287  0.41777885  0.21370167     0.19500
C1342       C  0.38998816  0.44882495  0.20850386     0.01600
C1343       C  0.39003220  0.46697294  0.24014535    -0.14400
C1344       C  0.39246970  0.45476249  0.27530469    -0.12100
C1345       C  0.39439266  0.42396665  0.28064562     0.01200
C1346       C  0.39478331  0.40577107  0.24927673    -0.24300
H1347       H  0.38205574  0.52478569  0.12284695     0.09200
H1348       H  0.38361782  0.50725055  0.18532842     0.12700
H1349       H  0.38955091  0.43588263  0.08248764     0.11500
H1350       H  0.39288519  0.39491144  0.12466839     0.12600
H1351       H  0.39547055  0.37517954  0.18699761     0.11700
H1352       H  0.38876557  0.49078984  0.23860696     0.08800
H1353       H  0.39329083  0.46973680  0.29849178     0.12000
H1354       H  0.39767807  0.38229722  0.25196093     0.13900
C1355       C  0.38277406  0.54198233  0.88247073    -0.01600
C1356       C  0.38305284  0.52141793  0.85364201    -0.09600
C1357       C  0.38229464  0.53076958  0.81692156    -0.18500
C1358       C  0.38139118  0.56129244  0.80760690     0.03900
C1359       C  0.38038100  0.58206860  0.83690973     0.18100
C1360       C  0.38103291  0.57230535  0.87385053    -0.19900
C1361       C  0.37917255  0.61251316  0.82915556    -0.21200
C1362       C  0.37973664  0.62288220  0.79290799    -0.19700
C1363       C  0.38156465  0.60308115  0.76346431     0.19500
C1364       C  0.38206870  0.57197034  0.77037673     0.01600
C1365       C  0.38414920  0.55295836  0.73982657    -0.14400
C1366       C  0.38668034  0.56436337  0.70433918    -0.12100
C1367       C  0.38666490  0.59508627  0.69734545     0.01200
C1368       C  0.38373877  0.61431637  0.72730229    -0.24300
H1369       H  0.38402038  0.49783145  0.85940253     0.09200
H1370       H  0.38265322  0.51349736  0.79653572     0.12700
H1371       H  0.38049251  0.58844169  0.89589564     0.11500
H1372       H  0.37819261  0.62848311  0.85132278     0.12600
H1373       H  0.37921743  0.64663147  0.78793349     0.11700
H1374       H  0.38462921  0.52914230  0.74246335     0.08800
H1375       H  0.38939763  0.54887754  0.68219376     0.12000
H1376       H  0.38428167  0.63809562  0.72334050     0.13900
C1377       C  0.66080665  0.52032628  0.02086597    -0.01600
C1378       C  0.67095496  0.54680408  0.02539219    -0.09600
C1379       C  0.69074809  0.54664055  0.02751123    -0.18500
C1380       C  0.70106903  0.51975373  0.02539249     0.03900
C1381       C  0.69064257  0.49290731  0.02126933     0.18100
C1382       C  0.67076558  0.49344840  0.01890990    -0.19900
C1383       C  0.70008651  0.46563121  0.01951524    -0.21200
C1384       C  0.71976732  0.46439192  0.02160840    -0.19700
C1385       C  0.73047075  0.49040347  0.02542077     0.19500
C1386       C  0.72131166  0.51849437  0.02726040     0.01600
C1387       C  0.73284151  0.54407428  0.03074643    -0.14400
C1388       C  0.75257039  0.54180431  0.03239183    -0.12100
C1389       C  0.76148672  0.51408378  0.03084308     0.01200
C1390       C  0.75033781  0.48845893  0.02735385    -0.24300
H1391       H  0.66357561  0.56784315  0.02710629     0.09200
H1392       H  0.69749577  0.56792816  0.03091020     0.12700
H1393       H  0.66301927  0.47276497  0.01585227     0.11500
H1394       H  0.69219205  0.44509448  0.01649055     0.12600
H1395       H  0.72666879  0.44292623  0.02016367     0.11700
H1396       H  0.72710505  0.56618498  0.03221942     0.08800
H1397       H  0.76084659  0.56193696  0.03538684     0.12000
H1398       H  0.75711997  0.46692044  0.02563564     0.13900
C1399       C  0.60302408  0.48988260  0.12539386    -0.01600
C1400       C  0.61527001  0.46667400  0.13483957    -0.09600
C1401       C  0.61564032  0.45536238  0.17076914    -0.18500
C1402       C  0.60327116  0.46645177  0.19832827     0.03900
C1403       C  0.59061887  0.48971380  0.18838092     0.18100
C1404       C  0.59099248  0.50176978  0.15243658    -0.19900
C1405       C  0.57726262  0.50008141  0.21401151    -0.21200
C1406       C  0.57574798  0.48713849  0.24891768    -0.19700
C1407       C  0.58803011  0.46426643  0.25959578     0.19500
C1408       C  0.60244265  0.45442912  0.23489714     0.01600
C1409       C  0.61533096  0.43284031  0.24782396    -0.14400
C1410       C  0.61309649  0.41996083  0.28263795    -0.12100
C1411       C  0.59780333  0.42767432  0.30578160     0.01200
C1412       C  0.58574242  0.45071916  0.29452875    -0.24300
H1413       H  0.62466828  0.45724875  0.11424678     0.09200
H1414       H  0.62528369  0.43723107  0.17574191     0.12700
H1415       H  0.58131096  0.51951135  0.14501026     0.11500
H1416       H  0.56751880  0.51772367  0.20662270     0.12600
H1417       H  0.56484830  0.49502509  0.26766488     0.11700
H1418       H  0.62735204  0.42552195  0.23174200     0.08800
H1419       H  0.62339317  0.40350950  0.29117530     0.12000
H1420       H  0.57411859  0.45744085  0.31223446     0.13900
C1421       C  0.60136198  0.54975985  0.90977928    -0.01600
C1422       C  0.59394832  0.57797804  0.90212657    -0.09600
C1423       C  0.59212361  0.58813191  0.86582770    -0.18500
C1424       C  0.59789882  0.57040059  0.83572770     0.03900
C1425       C  0.60619155  0.54232114  0.84369237     0.18100
C1426       C  0.60754675  0.53209341  0.88035887    -0.19900
C1427       C  0.61304777  0.52458725  0.81500082    -0.21200
C1428       C  0.61168250  0.53398983  0.77848196    -0.19700
C1429       C  0.60293160  0.56098766  0.76959696     0.19500
C1430       C  0.59572926  0.57944526  0.79807640     0.01600
C1431       C  0.58608125  0.60560364  0.78756137    -0.14400
C1432       C  0.58366057  0.61298602  0.75046071    -0.12100
C1433       C  0.59118672  0.59524250  0.72219946     0.01200
C1434       C  0.60085925  0.56913432  0.73227393    -0.24300
H1435       H  0.58917116  0.59214665  0.92434863     0.09200
H1436       H  0.58629251  0.61006835  0.86227355     0.12700
H1437       H  0.61357533  0.51040321  0.88602111     0.11500
H1438       H  0.61955577  0.50328800  0.82084737     0.12600
H1439       H  0.61716852  0.51971851  0.75696120     0.11700
H1440       H  0.57966875  0.62035117  0.80730871     0.08800
H1441       H  0.57555734  0.63270392  0.74373421     0.12000
H1442       H  0.60608715  0.55415106  0.71145503     0.13900
C1443       C  0.44341823  0.51707453  0.99608355    -0.01600
C1444       C  0.45241761  0.54340307  0.00677652    -0.09600
C1445       C  0.47206079  0.54446601  0.01171280    -0.18500
C1446       C  0.48345843  0.51902653  0.00610384     0.03900
C1447       C  0.47425011  0.49229854  0.99548148     0.18100
C1448       C  0.45446847  0.49157333  0.99056952    -0.19900
C1449       C  0.48483009  0.46643691  0.98970745    -0.21200
C1450       C  0.50447118  0.46664526  0.99356212    -0.19700
C1451       C  0.51400983  0.49269532  0.00342743     0.19500
C1452       C  0.50363942  0.51919647  0.01026736     0.01600
C1453       C  0.51396065  0.54477499  0.02061206    -0.14400
C1454       C  0.53371428  0.54421964  0.02319414    -0.12100
C1455       C  0.54391001  0.51826380  0.01565056     0.01200
C1456       C  0.53392092  0.49246600  0.00611610    -0.24300
H1457       H  0.44423408  0.56338137  0.01150267     0.09200
H1458       H  0.47784371  0.56557251  0.01986751     0.12700
H1459       H  0.44765918  0.47096429  0.98265618     0.11500
H1460       H  0.47787866  0.44594335  0.98182673     0.12600
H1461       H  0.51227092  0.44632598  0.98852503     0.11700
H1462       H  0.50724817  0.56565883  0.02666366     0.08800
H1463       H  0.54104394  0.56444926  0.03076668     0.12000
H1464       H  0.54164861  0.47218449  0.00041017     0.13900
loop_ 
_geom_bond_atom_site_label_1 
_geom_bond_atom_site_label_2 
_geom_bond_distance 
_geom_bond_site_symmetry_2 
_ccdc_geom_bond_type 
O1           Cu9   1.995       .  S
O1           C11   1.277       .  A
O2           Cu9   2.008       .  S
O2           C12   1.278       .  A
O3           Cu9   2.019   1_556  S
O3           C13   1.279       .  A
O4           Cu9   2.012       .  S
O4           C14   1.279       .  A
O5          Cu10   2.015       .  S
O5           C14   1.278       .  A
O6          Cu10   2.012   1_556  S
O6           C13   1.279       .  A
O7          Cu10   1.999       .  S
O7           C12   1.278       .  A
O8          Cu10   2.011       .  S
O8           C11   1.279       .  A
Cu9         Cu10   2.372       .  S
C11        C1377   1.476       .  S
C12        C1455   1.479       .  S
C13        C1421   1.483       .  S
C14        C1399   1.475       .  S
O15         Cu23   2.014       .  S
O15          C25   1.279       .  A
O16         Cu23   2.015   1_556  S
O16          C26   1.279       .  A
O17         Cu23   2.003   1_556  S
O17          C27   1.278       .  A
O18         Cu23   2.008       .  S
O18          C28   1.278   1_554  A
O19         Cu24   2.007       .  S
O19          C28   1.278       .  A
O20         Cu24   2.005       .  S
O20          C27   1.277       .  A
O21         Cu24   2.008       .  S
O21          C26   1.279       .  A
O22         Cu24   2.001   1_554  S
O22          C25   1.278       .  A
Cu23        Cu24   2.370   1_554  S
C25        C1333   1.482       .  S
C26        C1355   1.484       .  S
C27        C1311   1.477       .  S
C28        C1443   1.481       .  S
C29          C30   1.529       .  S
C29          C35   1.534       .  S
C29          C33   1.540       .  S
C29        C1367   1.528       .  S
C30          H37   1.087       .  S
C30          C31   1.363       .  D
C31          C32   1.540       .  S
C31        C1267   1.481       .  S
C32          C36   1.543       .  S
C32          C34   1.551       .  S
C32          H38   1.110       .  S
C33          H39   1.083       .  S
C33          C34   1.373       .  D
C34        C1289   1.494       .  S
C35          H40   1.086       .  S
C35          C36   1.364       .  D
C36          C56   1.473       .  S
C41          C42   1.529       .  S
C41          C47   1.534       .  S
C41          C45   1.539       .  S
C41        C1345   1.527       .  S
C42          H49   1.085       .  S
C42          C43   1.367       .  D
C43          C44   1.549       .  S
C43        C1223   1.498       .  S
C44          C48   1.546       .  S
C44          C46   1.553       .  S
C44          H50   1.109       .  S
C45          H51   1.084       .  S
C45          C46   1.367       .  D
C46        C1257   1.493       .  S
C47          H52   1.086       .  S
C47          C48   1.364       .  D
C48          C66   1.477       .  S
N53          N54   1.323       .  A
N53          C57   1.342       .  A
N53         Cu61   2.067       .  S
N54          C55   1.350       .  A
N54         Cu60   2.100       .  S
C55          C56   1.388       .  A
C55          H58   1.082       .  S
C56          C57   1.379       .  A
C57          H59   1.082       .  S
Cu60         N63   2.100       .  S
Cu61         N71   2.067       .  S
Cu62         N64   2.074       .  S
Cu62         N70   2.073       .  S
N63          N64   1.323       .  A
N63          C67   1.350       .  A
N64          C65   1.344       .  A
C65          C66   1.382       .  A
C65          H68   1.082       .  S
C66          C67   1.387       .  A
C67          H69   1.082       .  S
N70          N71   1.321       .  A
N70          C74   1.344       .  A
N71          C72   1.345       .  A
C72          C73   1.384       .  A
C72          H75   1.082       .  S
C73        C1213   1.476       .  S
C73          C74   1.385       .  A
C74          H76   1.082       .  S
C77          C78   1.540       .  S
C77          C83   1.536       .  S
C77          C81   1.528       .  S
C77        C1179   1.530       .  S
C78          H85   1.082       .  S
C78          C79   1.370       .  D
C79          C80   1.548       .  S
C79        C1301   1.494       .  S
C80          C84   1.542       .  S
C80          C82   1.537       .  S
C80          H86   1.111       .  S
C81          H87   1.087       .  S
C81          C82   1.362       .  D
C82        C1169   1.476       .  S
C83          H88   1.086       .  S
C83          C84   1.368       .  D
C84         C114   1.472       .  S
C89          C90   1.536       .  S
C89          C95   1.533       .  S
C89          C93   1.537       .  S
C89        C1147   1.530       .  S
C90          H97   1.087       .  S
C90          C91   1.364       .  D
C91          C92   1.542       .  S
C91         C104   1.477       .  S
C92          C96   1.549       .  S
C92          C94   1.553       .  S
C92          H98   1.108       .  S
C93          H99   1.082       .  S
C93          C94   1.366       .  D
C94        C1245   1.491       .  S
C95         H100   1.085       .  S
C95          C96   1.369       .  D
C96        C1113   1.499       .  S
N101        N102   1.325       .  A
N101        C105   1.344       .  A
N101       Cu109   2.076       .  S
N102        C103   1.352       .  A
N102       Cu108   2.111       .  S
C103        C104   1.388       .  A
C103        H106   1.082       .  S
C104        C105   1.379       .  A
C105        H107   1.082       .  S
Cu108       N111   2.109   1_545  S
Cu109       N119   2.074       .  S
Cu110       N112   2.044       .  S
Cu110       N118   2.043       .  S
N111        N112   1.322       .  A
N111        C115   1.352       .  A
N112        C113   1.340       .  A
C113        C114   1.374       .  A
C113        H116   1.082       .  S
C114        C115   1.391       .  A
C115        H117   1.082       .  S
N118        N119   1.319   1_565  A
N118        C122   1.340       .  A
N119        C120   1.346       .  A
C120        C121   1.388       .  A
C120        H123   1.082       .  S
C121       C1091   1.473       .  S
C121        C122   1.380   1_545  A
C122        H124   1.082       .  S
O125       Cu133   2.001       .  S
O125        C135   1.277   1_556  A
O126       Cu133   2.009   1_554  S
O126        C136   1.279       .  A
O127       Cu133   2.027       .  S
O127        C137   1.280   1_545  A
O128       Cu133   2.022   1_554  S
O128        C138   1.281       .  A
O129       Cu134   2.002       .  S
O129        C138   1.276   1_565  A
O130       Cu134   1.996   1_556  S
O130        C137   1.277       .  A
O131       Cu134   2.014       .  S
O131        C136   1.279   1_565  A
O132       Cu134   2.023       .  S
O132        C135   1.281   1_565  A
Cu133      Cu134   2.370   1_546  S
C135       C1069   1.485       .  S
C136       C1015   1.483       .  S
C137       C1047   1.480       .  S
C138       C1025   1.481       .  S
O139       Cu147   2.012       .  S
O139        C149   1.278   1_545  A
O140       Cu147   2.007   1_554  S
O140        C150   1.278       .  A
O141       Cu147   2.028       .  S
O141        C151   1.281       .  A
O142       Cu147   2.023       .  S
O142        C152   1.280       .  A
O143       Cu148   1.999       .  S
O143        C152   1.277   1_565  A
O144       Cu148   2.007       .  S
O144        C151   1.278   1_565  A
O145       Cu148   2.014   1_544  S
O145        C150   1.279       .  A
O146       Cu148   2.014       .  S
O146        C149   1.279       .  A
Cu147      Cu148   2.369   1_545  S
C149       C1191   1.484       .  S
C150       C1135   1.483       .  S
C151       C1081   1.488       .  S
C152        C981   1.481       .  S
C153        C154   1.535       .  S
C153        C159   1.531       .  S
C153        C157   1.543       .  S
C153       C1059   1.530       .  S
C154        H161   1.086       .  S
C154        C155   1.368       .  D
C155        C156   1.538       .  S
C155       C1157   1.480       .  S
C156        C160   1.543       .  S
C156        C158   1.543       .  S
C156        H162   1.111       .  S
C157        H163   1.082       .  S
C157        C158   1.363       .  D
C158        C959   1.481       .  S
C159        H164   1.087       .  S
C159        C160   1.365       .  D
C160        C180   1.476       .  S
C165        C166   1.534       .  S
C165        C171   1.533       .  S
C165        C169   1.530       .  S
C165        C937   1.523       .  S
C166        H173   1.083       .  S
C166        C167   1.374       .  D
C167        C168   1.549       .  S
C167        C190   1.476       .  S
C168        C172   1.540       .  S
C168        C170   1.544       .  S
C168        H174   1.110       .  S
C169        H175   1.087       .  S
C169        C170   1.362       .  D
C170       C1037   1.486       .  S
C171        H176   1.087       .  S
C171        C172   1.364       .  D
C172       C1125   1.483       .  S
N177        N178   1.323       .  A
N177        C181   1.342       .  A
N177       Cu185   2.072       .  S
N178        C179   1.351       .  A
N178       Cu184   2.096       .  S
C179        C180   1.387       .  A
C179        H182   1.082       .  S
C180        C181   1.380       .  A
C181        H183   1.082       .  S
Cu184       N187   2.095   1_565  S
Cu185       N195   2.071       .  S
Cu186       N188   2.066       .  S
Cu186       N194   2.064       .  S
N187        N188   1.324       .  A
N187        C191   1.350       .  A
N188        C189   1.342       .  A
C189        C190   1.380       .  A
C189        H192   1.082       .  S
C190        C191   1.386       .  A
C191        H193   1.082       .  S
N194        N195   1.320   1_545  A
N194        C198   1.345       .  A
N195        C196   1.344       .  A
C196        C197   1.387   1_565  A
C196        H199   1.082       .  S
C197        C915   1.480       .  S
C197        C198   1.385       .  A
C198        H200   1.082       .  S
C201        C202   1.540       .  S
C201        C207   1.532       .  S
C201        C205   1.533       .  S
C201       C1433   1.529       .  S
C202        H209   1.083       .  S
C202        C203   1.369       .  D
C203        C204   1.541       .  S
C203        C238   1.474       .  S
C204        C208   1.538       .  S
C204        C206   1.548       .  S
C204        H210   1.111       .  S
C205        H211   1.087       .  S
C205        C206   1.363       .  D
C206        C971   1.482       .  S
C207        H212   1.087       .  S
C207        C208   1.366       .  D
C208       C1279   1.481       .  S
C213        C214   1.529       .  S
C213        C219   1.529       .  S
C213        C217   1.538       .  S
C213        C949   1.524       .  S
C214        H221   1.085       .  S
C214        C215   1.366       .  D
C215        C216   1.552       .  S
C215       C1411   1.495       .  S
C216        C220   1.543       .  S
C216        C218   1.544       .  S
C216        H222   1.110       .  S
C217        H223   1.083       .  S
C217        C218   1.373       .  D
C218        C228   1.475       .  S
C219        H224   1.087       .  S
C219        C220   1.362       .  D
C220       C1235   1.488       .  S
N225        N226   1.325       .  A
N225        C229   1.341       .  A
N225       Cu233   2.062       .  S
N226        C227   1.351       .  A
N226       Cu232   2.105       .  S
C227        C228   1.388       .  A
C227        H230   1.082       .  S
C228        C229   1.377       .  A
C229        H231   1.082       .  S
Cu232       N235   2.105       .  S
Cu233       N243   2.060       .  S
Cu234       N236   2.055       .  S
Cu234       N242   2.055       .  S
N235        N236   1.323       .  A
N235        C239   1.353       .  A
N236        C237   1.339       .  A
C237        C238   1.375       .  A
C237        H240   1.082       .  S
C238        C239   1.391       .  A
C239        H241   1.082       .  S
N242        N243   1.318       .  A
N242        C246   1.343       .  A
N243        C244   1.343       .  A
C244        C245   1.385       .  A
C244        H247   1.082       .  S
C245        C893   1.475       .  S
C245        C246   1.385       .  A
C246        H248   1.082       .  S
O249       Cu257   2.026       .  S
O249        C259   1.279       .  A
O250       Cu257   2.015       .  S
O250        C260   1.279       .  A
O251       Cu257   2.030       .  S
O251        C261   1.281       .  A
O252       Cu257   2.033       .  S
O252        C262   1.281       .  A
O253       Cu258   1.997       .  S
O253        C262   1.277       .  A
O254       Cu258   1.995       .  S
O254        C261   1.277       .  A
O255       Cu258   2.007       .  S
O255        C260   1.278       .  A
O256       Cu258   2.011       .  S
O256        C259   1.279       .  A
Cu257      Cu258   2.368       .  S
C259        C827   1.488       .  S
C260        C849   1.483       .  S
C261       C1201   1.485       .  S
C262        C871   1.488       .  S
O263       Cu271   2.000       .  S
O263        C273   1.277       .  A
O264       Cu271   2.009       .  S
O264        C274   1.279       .  A
O265       Cu271   2.010       .  S
O265        C275   1.278       .  A
O266       Cu271   2.005       .  S
O266        C276   1.279       .  A
O267       Cu272   2.005       .  S
O267        C276   1.277       .  A
O268       Cu272   2.001       .  S
O268        C275   1.278       .  A
O269       Cu272   2.019       .  S
O269        C274   1.279       .  A
O270       Cu272   2.014       .  S
O270        C273   1.279       .  A
Cu271      Cu272   2.371       .  S
C273        C905   1.479       .  S
C274        C883   1.486       .  S
C275        C805   1.480       .  S
C276        C783   1.478       .  S
C277        C278   1.538       .  S
C277        C283   1.536       .  S
C277        C281   1.530       .  S
C277        C817   1.525       .  S
C278        H285   1.084       .  S
C278        C279   1.363       .  D
C279        C280   1.544       .  S
C279        C761   1.479       .  S
C280        C284   1.540       .  S
C280        C282   1.538       .  S
C280        H286   1.110       .  S
C281        H287   1.087       .  S
C281        C282   1.364       .  D
C282        C739   1.483       .  S
C283        H288   1.086       .  S
C283        C284   1.368       .  D
C284        C304   1.468       .  S
C289        C290   1.531       .  S
C289        C295   1.534       .  S
C289        C293   1.540       .  S
C289        C795   1.528       .  S
C290        H297   1.087       .  S
C290        C291   1.363       .  D
C291        C292   1.537       .  S
C291        C314   1.470       .  S
C292        C296   1.550       .  S
C292        C294   1.546       .  S
C292        H298   1.106       .  S
C293        H299   1.081       .  S
C293        C294   1.367       .  D
C294        C717   1.492       .  S
C295        H300   1.083       .  S
C295        C296   1.371       .  D
C296        C695   1.501       .  S
N301        N302   1.323       .  A
N301        C305   1.342       .  A
N301       Cu309   2.057   1_556  S
N302        C303   1.348       .  A
N302       Cu308   2.093   1_556  S
C303        C304   1.386       .  A
C303        H306   1.082       .  S
C304        C305   1.377       .  A
C305        H307   1.082       .  S
Cu308       N311   2.092       .  S
Cu309       N319   2.057       .  S
Cu310       N312   2.063       .  S
Cu310       N318   2.062       .  S
N311        N312   1.323       .  A
N311        C315   1.349       .  A
N312        C313   1.341       .  A
C313        C314   1.378       .  A
C313        H316   1.082       .  S
C314        C315   1.385       .  A
C315        H317   1.082       .  S
N318        N319   1.319       .  A
N318        C322   1.344       .  A
N319        C320   1.342       .  A
C320        C321   1.384       .  A
C320        H323   1.082       .  S
C321       C1389   1.477       .  S
C321        C322   1.386       .  A
C322        H324   1.082       .  S
C325        C326   1.534       .  S
C325        C331   1.538       .  S
C325        C329   1.544       .  S
C325        C673   1.535       .  S
C326        H333   1.087       .  S
C326        C327   1.365       .  D
C327        C328   1.536       .  S
C327        C651   1.485       .  S
C328        C332   1.540       .  S
C328        C330   1.541       .  S
C328        H334   1.111       .  S
C329        H335   1.082       .  S
C329        C330   1.365       .  D
C330        C773   1.478       .  S
C331        H336   1.086       .  S
C331        C332   1.370       .  D
C332        C362   1.474       .  S
C337        C338   1.533       .  S
C337        C343   1.543       .  S
C337        C341   1.540       .  S
C337        C729   1.539       .  S
C338        H345   1.086       .  S
C338        C339   1.367       .  D
C339        C340   1.541       .  S
C339        C352   1.477       .  S
C340        C344   1.531       .  S
C340        C342   1.549       .  S
C340        H346   1.109       .  S
C341        H347   1.085       .  S
C341        C342   1.373       .  D
C342        C641   1.500       .  S
C343        H348   1.083       .  S
C343        C344   1.363       .  D
C344        C607   1.474       .  S
N349        N350   1.323       .  A
N349        C353   1.343       .  A
N349       Cu357   2.063       .  S
N350        C351   1.350       .  A
N350       Cu356   2.099   1_545  S
C351        C352   1.388       .  A
C351        H354   1.082       .  S
C352        C353   1.379       .  A
C353        H355   1.082       .  S
Cu356       N359   2.099   1_554  S
Cu357       N367   2.063       .  S
Cu358       N360   2.067   1_554  S
Cu358       N366   2.066       .  S
N359        N360   1.324       .  A
N359        C363   1.350       .  A
N360        C361   1.343       .  A
C361        C362   1.378       .  A
C361        H364   1.082       .  S
C362        C363   1.386       .  A
C363        H365   1.082       .  S
N366        N367   1.320   1_565  A
N366        C370   1.345       .  A
N367        C368   1.342       .  A
C368        C369   1.385   1_545  A
C368        H371   1.082       .  S
C369       C1003   1.479   1_565  S
C369        C370   1.386       .  A
C370        H372   1.082       .  S
O373       Cu381   1.988       .  S
O373        C383   1.276   1_545  A
O374       Cu381   1.994       .  S
O374        C384   1.276   1_545  A
O375       Cu381   2.025   1_565  S
O375        C385   1.280       .  A
O376       Cu381   2.019       .  S
O376        C386   1.280       .  A
O377       Cu382   2.007       .  S
O377        C386   1.277   1_565  A
O378       Cu382   2.005       .  S
O378        C385   1.278       .  A
O379       Cu382   2.006       .  S
O379        C384   1.279       .  A
O380       Cu382   2.017       .  S
O380        C383   1.279       .  A
Cu381      Cu382   2.371   1_545  S
C383       C1103   1.477       .  S
C384        C597   1.476       .  S
C385        C563   1.487       .  S
C386        C541   1.479       .  S
O387       Cu395   2.023       .  S
O387        C397   1.279   1_565  A
O388       Cu395   2.018       .  S
O388        C398   1.279       .  A
O389       Cu395   2.003       .  S
O389        C399   1.278       .  A
O390       Cu395   1.993       .  S
O390        C400   1.277       .  A
O391       Cu396   2.012       .  S
O391        C400   1.278   1_545  A
O392       Cu396   2.012       .  S
O392        C399   1.278   1_545  A
O393       Cu396   2.023       .  S
O393        C398   1.280   1_545  A
O394       Cu396   2.016       .  S
O394        C397   1.279       .  A
Cu395      Cu396   2.371   1_565  S
C397        C629   1.481       .  S
C398        C685   1.489       .  S
C399        C927   1.478   1_565  S
C400        C585   1.477       .  S
C401        C402   1.531       .  S
C401        C407   1.540       .  S
C401        C405   1.537       .  S
C401        C861   1.530       .  S
C402        H409   1.086       .  S
C402        C403   1.366       .  D
C403        C404   1.542       .  S
C403        C751   1.485       .  S
C404        C408   1.539       .  S
C404        C406   1.548       .  S
C404        H410   1.110       .  S
C405        H411   1.085       .  S
C405        C406   1.370       .  D
C406        C519   1.493       .  S
C407        H412   1.084       .  S
C407        C408   1.366       .  D
C408        C428   1.474       .  S
C413        C414   1.530       .  S
C413        C419   1.537       .  S
C413        C417   1.542       .  S
C413        C497   1.534       .  S
C414        H421   1.086       .  S
C414        C415   1.368       .  D
C415        C416   1.543       .  S
C415        C438   1.479       .  S
C416        C420   1.539       .  S
C416        C418   1.545       .  S
C416        H422   1.110       .  S
C417        H423   1.084       .  S
C417        C418   1.372       .  D
C418        C839   1.491       .  S
C419        H424   1.086       .  S
C419        C420   1.362       .  D
C420        C707   1.480       .  S
N425        N426   1.323       .  A
N425        C429   1.340       .  A
N425       Cu433   2.055       .  S
N426        C427   1.352       .  A
N426       Cu432   2.103   1_556  S
C427        C428   1.389       .  A
C427        H430   1.082       .  S
C428        C429   1.377       .  A
C429        H431   1.082       .  S
Cu432       N435   2.104       .  S
Cu433       N443   2.054       .  S
Cu434       N436   2.079       .  S
Cu434       N442   2.077   1_554  S
N435        N436   1.326       .  A
N435        C439   1.353       .  A
N436        C437   1.342       .  A
C437        C438   1.379       .  A
C437        H440   1.082       .  S
C438        C439   1.387       .  A
C439        H441   1.082       .  S
N442        N443   1.319       .  A
N442        C446   1.349   1_556  A
N443        C444   1.340       .  A
C444        C445   1.383       .  A
C444        H447   1.082       .  S
C445       C1323   1.479       .  S
C445        C446   1.389   1_556  A
C446        H448   1.082       .  S
C449        C450   1.537       .  S
C449        C455   1.539       .  S
C449        C453   1.528       .  S
C449        C575   1.533       .  S
C450        H457   1.084       .  S
C450        C451   1.367       .  D
C451        C452   1.549       .  S
C451        C531   1.492       .  S
C452        C456   1.543       .  S
C452        C454   1.541       .  S
C452        H458   1.110       .  S
C453        H459   1.086       .  S
C453        C454   1.367       .  D
C454        C663   1.486       .  S
C455        H460   1.086       .  S
C455        C456   1.370       .  D
C456        C486   1.477       .  S
C461        C462   1.537       .  S
C461        C467   1.539       .  S
C461        C465   1.534       .  S
C461        C509   1.535       .  S
C462        H469   1.083       .  S
C462        C463   1.371       .  D
C463        C464   1.550       .  S
C463        C553   1.499       .  S
C464        C468   1.532       .  S
C464        C466   1.540       .  S
C464        H470   1.108       .  S
C465        H471   1.086       .  S
C465        C466   1.369       .  D
C466        C476   1.478       .  S
C467        H472   1.085       .  S
C467        C468   1.363       .  D
C468        C619   1.473       .  S
N473        N474   1.324       .  A
N473        C477   1.342       .  A
N473       Cu481   2.062       .  S
N474        C475   1.352       .  A
N474       Cu480   2.110   1_545  S
C475        C476   1.390       .  A
C475        H478   1.082       .  S
C476        C477   1.377       .  A
C477        H479   1.082       .  S
Cu480       N483   2.110   1_554  S
Cu481       N491   2.061   1_545  S
Cu482       N484   2.068       .  S
Cu482       N490   2.067       .  S
N483        N484   1.325       .  A
N483        C487   1.353       .  A
N484        C485   1.342       .  A
C485        C486   1.377       .  A
C485        H488   1.082       .  S
C486        C487   1.389       .  A
C487        H489   1.082       .  S
N490        N491   1.319   1_556  A
N490        C494   1.346       .  A
N491        C492   1.343   1_565  A
C492        C493   1.385   1_544  A
C492        H495   1.082       .  S
C493        C993   1.479       .  S
C493        C494   1.387       .  A
C494        H496   1.082       .  S
C497        C498   1.405       .  A
C497        C502   1.407       .  A
C498        C499   1.402       .  A
C498        H511   1.082       .  S
C499        C500   1.416       .  A
C499        H512   1.078       .  S
C500        C506   1.433       .  A
C500        C501   1.420       .  A
C501        C503   1.399       .  A
C501        C502   1.402       .  A
C502        H513   1.083       .  S
C503        C504   1.389       .  A
C503        H514   1.084       .  S
C504        C505   1.399       .  A
C504        H515   1.084       .  S
C505        C506   1.421       .  A
C505        C510   1.405       .  A
C506        C507   1.414       .  A
C507        C508   1.400       .  A
C507        H516   1.078       .  S
C508        C509   1.406       .  A
C508        H517   1.082       .  S
C509        C510   1.407       .  A
C510        H518   1.082       .  S
C519        C520   1.400       .  A
C519        C524   1.403       .  A
C520        C521   1.400       .  A
C520        H533   1.075       .  S
C521        C522   1.414       .  A
C521        H534   1.078       .  S
C522        C528   1.433       .  A
C522        C523   1.422       .  A
C523        C525   1.398       .  A
C523        C524   1.404       .  A
C524        H535   1.084       .  S
C525        C526   1.389       .  A
C525        H536   1.084       .  S
C526        C527   1.399       .  A
C526        H537   1.084       .  S
C527        C528   1.421       .  A
C527        C532   1.404       .  A
C528        C529   1.417       .  A
C529        C530   1.402       .  A
C529        H538   1.078       .  S
C530        C531   1.400       .  A
C530        H539   1.079       .  S
C531        C532   1.404       .  A
C532        H540   1.084       .  S
C541        C542   1.399       .  A
C541        C546   1.403       .  A
C542        C543   1.397       .  A
C542        H555   1.083       .  S
C543        C544   1.416       .  A
C543        H556   1.077       .  S
C544        C550   1.430       .  A
C544        C545   1.421       .  A
C545        C547   1.401       .  A
C545        C546   1.406       .  A
C546        H557   1.085   1_545  S
C547        C548   1.392       .  A
C547        H558   1.084   1_545  S
C548        C549   1.400       .  A
C548        H559   1.084       .  S
C549        C550   1.422       .  A
C549        C554   1.409       .  A
C550        C551   1.410       .  A
C551        C552   1.394       .  A
C551        H560   1.077       .  S
C552        C553   1.406       .  A
C552        H561   1.081       .  S
C553        C554   1.405       .  A
C554        H562   1.081       .  S
C563        C564   1.402       .  A
C563        C568   1.404       .  A
C564        C565   1.395       .  A
C564        H577   1.083       .  S
C565        C566   1.414       .  A
C565        H578   1.077       .  S
C566        C572   1.432       .  A
C566        C567   1.422       .  A
C567        C569   1.400       .  A
C567        C568   1.410       .  A
C568        H579   1.084   1_565  S
C569        C570   1.393       .  A
C569        H580   1.084   1_565  S
C570        C571   1.401       .  A
C570        H581   1.084       .  S
C571        C572   1.421       .  A
C571        C576   1.410       .  A
C572        C573   1.412       .  A
C573        C574   1.395       .  A
C573        H582   1.077       .  S
C574        C575   1.406       .  A
C574        H583   1.080       .  S
C575        C576   1.408       .  A
C576        H584   1.083       .  S
C585        C586   1.400       .  A
C585        C590   1.402   1_565  A
C586        C587   1.391       .  A
C586        H599   1.083       .  S
C587        C588   1.413       .  A
C587        H600   1.077       .  S
C588        C594   1.426   1_655  A
C588        C589   1.422   1_565  A
C589        C591   1.400       .  A
C589        C590   1.405       .  A
C590        H601   1.084       .  S
C591        C592   1.390   1_655  A
C591        H602   1.084       .  S
C592        C593   1.400       .  A
C592        H603   1.084       .  S
C593        C594   1.421   1_545  A
C593        C598   1.404       .  A
C594        C595   1.414       .  A
C595        C596   1.392       .  A
C595        H604   1.077       .  S
C596        C597   1.398       .  A
C596        H605   1.083       .  S
C597        C598   1.403   1_565  A
C598        H606   1.084       .  S
C607        C608   1.397       .  A
C607        C612   1.396       .  A
C608        C609   1.400       .  A
C608        H621   1.083       .  S
C609        C610   1.417       .  A
C609        H622   1.078       .  S
C610        C616   1.430   1_655  A
C610        C611   1.423       .  A
C611        C613   1.398       .  A
C611        C612   1.400       .  A
C612        H623   1.085       .  S
C613        C614   1.386   1_655  A
C613        H624   1.084       .  S
C614        C615   1.398       .  A
C614        H625   1.084       .  S
C615        C616   1.423       .  A
C615        C620   1.400       .  A
C616        C617   1.417       .  A
C617        C618   1.400       .  A
C617        H626   1.078       .  S
C618        C619   1.397       .  A
C618        H627   1.083       .  S
C619        C620   1.396       .  A
C620        H628   1.085       .  S
C629        C630   1.399       .  A
C629        C634   1.403       .  A
C630        C631   1.398       .  A
C630        H643   1.084       .  S
C631        C632   1.416       .  A
C631        H644   1.077       .  S
C632        C638   1.433       .  A
C632        C633   1.423       .  A
C633        C635   1.401       .  A
C633        C634   1.410       .  A
C634        H645   1.084   1_545  S
C635        C636   1.393       .  A
C635        H646   1.084   1_545  S
C636        C637   1.401       .  A
C636        H647   1.084       .  S
C637        C638   1.422       .  A
C637        C642   1.411       .  A
C638        C639   1.413       .  A
C639        C640   1.397       .  A
C639        H648   1.077       .  S
C640        C641   1.405       .  A
C640        H649   1.082       .  S
C641        C642   1.406       .  A
C642        H650   1.082       .  S
C651        C652   1.400       .  A
C651        C656   1.399       .  A
C652        C653   1.401       .  A
C652        H665   1.080       .  S
C653        C654   1.416       .  A
C653        H666   1.078       .  S
C654        C660   1.430   1_655  A
C654        C655   1.422       .  A
C655        C657   1.397       .  A
C655        C656   1.399       .  A
C656        H667   1.085       .  S
C657        C658   1.385   1_655  A
C657        H668   1.084       .  S
C658        C659   1.398       .  A
C658        H669   1.084       .  S
C659        C660   1.421       .  A
C659        C664   1.398       .  A
C660        C661   1.416       .  A
C661        C662   1.401       .  A
C661        H670   1.078       .  S
C662        C663   1.400       .  A
C662        H671   1.079       .  S
C663        C664   1.400       .  A
C664        H672   1.084       .  S
C673        C674   1.407       .  A
C673        C678   1.408       .  A
C674        C675   1.398       .  A
C674        H687   1.076       .  S
C675        C676   1.413       .  A
C675        H688   1.077       .  S
C676        C682   1.434       .  A
C676        C677   1.421       .  A
C677        C679   1.400       .  A
C677        C678   1.408       .  A
C678        H689   1.085       .  S
C679        C680   1.392       .  A
C679        H690   1.084       .  S
C680        C681   1.400       .  A
C680        H691   1.084   1_565  S
C681        C682   1.422       .  A
C681        C686   1.409       .  A
C682        C683   1.416       .  A
C683        C684   1.399       .  A
C683        H692   1.077       .  S
C684        C685   1.402       .  A
C684        H693   1.083       .  S
C685        C686   1.404       .  A
C686        H694   1.084   1_565  S
C695        C696   1.403       .  A
C695        C700   1.410       .  A
C696        C697   1.395       .  A
C696        H709   1.078       .  S
C697        C698   1.413       .  A
C697        H710   1.077       .  S
C698        C704   1.428   1_655  A
C698        C699   1.418       .  A
C699        C701   1.401       .  A
C699        C700   1.404       .  A
C700        H711   1.081       .  S
C701        C702   1.391   1_655  A
C701        H712   1.084       .  S
C702        C703   1.399       .  A
C702        H713   1.084       .  S
C703        C704   1.424       .  A
C703        C708   1.407       .  A
C704        C705   1.413       .  A
C705        C706   1.392       .  A
C705        H714   1.077       .  S
C706        C707   1.400       .  A
C706        H715   1.084       .  S
C707        C708   1.399       .  A
C708        H716   1.085       .  S
C717        C718   1.403       .  A
C717        C722   1.401       .  A
C718        C719   1.397       .  A
C718        H731   1.083       .  S
C719        C720   1.413       .  A
C719        H732   1.077       .  S
C720        C726   1.434       .  A
C720        C721   1.425       .  A
C721        C723   1.399       .  A
C721        C722   1.411       .  A
C722        H733   1.083       .  S
C723        C724   1.391       .  A
C723        H734   1.084       .  S
C724        C725   1.401       .  A
C724        H735   1.084       .  S
C725        C726   1.419       .  A
C725        C730   1.407       .  A
C726        C727   1.416       .  A
C727        C728   1.401       .  A
C727        H736   1.077       .  S
C728        C729   1.405       .  A
C728        H737   1.083       .  S
C729        C730   1.410       .  A
C730        H738   1.079       .  S
C739        C740   1.398       .  A
C739        C744   1.402       .  A
C740        C741   1.398       .  A
C740        H753   1.081       .  S
C741        C742   1.417       .  A
C741        H754   1.077       .  S
C742        C748   1.428   1_655  A
C742        C743   1.420       .  A
C743        C745   1.399       .  A
C743        C744   1.399       .  A
C744        H755   1.084       .  S
C745        C746   1.388       .  A
C745        H756   1.084       .  S
C746        C747   1.398   1_655  A
C746        H757   1.084   1_655  S
C747        C748   1.423       .  A
C747        C752   1.403       .  A
C748        C749   1.413       .  A
C749        C750   1.395       .  A
C749        H758   1.077       .  S
C750        C751   1.397       .  A
C750        H759   1.075       .  S
C751        C752   1.402       .  A
C752        H760   1.084       .  S
C761        C762   1.395       .  A
C761        C766   1.401       .  A
C762        C763   1.397       .  A
C762        H775   1.081       .  S
C763        C764   1.416       .  A
C763        H776   1.077       .  S
C764        C770   1.431       .  A
C764        C765   1.422       .  A
C765        C767   1.400       .  A
C765        C766   1.407       .  A
C766        H777   1.085       .  S
C767        C768   1.392       .  A
C767        H778   1.084       .  S
C768        C769   1.400       .  A
C768        H779   1.084       .  S
C769        C770   1.424       .  A
C769        C774   1.409       .  A
C770        C771   1.415       .  A
C771        C772   1.395       .  A
C771        H780   1.077       .  S
C772        C773   1.395       .  A
C772        H781   1.080       .  S
C773        C774   1.401       .  A
C774        H782   1.085       .  S
C783        C784   1.399       .  A
C783        C788   1.403       .  A
C784        C785   1.393       .  A
C784        H797   1.083       .  S
C785        C786   1.414       .  A
C785        H798   1.077       .  S
C786        C792   1.427       .  A
C786        C787   1.422       .  A
C787        C789   1.400       .  A
C787        C788   1.405       .  A
C788        H799   1.084       .  S
C789        C790   1.391       .  A
C789        H800   1.084       .  S
C790        C791   1.400       .  A
C790        H801   1.084       .  S
C791        C792   1.419       .  A
C791        C796   1.404       .  A
C792        C793   1.412       .  A
C793        C794   1.394       .  A
C793        H802   1.077       .  S
C794        C795   1.405       .  A
C794        H803   1.076       .  S
C795        C796   1.407       .  A
C796        H804   1.085       .  S
C805        C806   1.400       .  A
C805        C810   1.403       .  A
C806        C807   1.393       .  A
C806        H819   1.083       .  S
C807        C808   1.414       .  A
C807        H820   1.077       .  S
C808        C814   1.428       .  A
C808        C809   1.422       .  A
C809        C811   1.400       .  A
C809        C810   1.406       .  A
C810        H821   1.084       .  S
C811        C812   1.391       .  A
C811        H822   1.084       .  S
C812        C813   1.400       .  A
C812        H823   1.084       .  S
C813        C814   1.421       .  A
C813        C818   1.406       .  A
C814        C815   1.411       .  A
C815        C816   1.392       .  A
C815        H824   1.077       .  S
C816        C817   1.406       .  A
C816        H825   1.079       .  S
C817        C818   1.407       .  A
C818        H826   1.084       .  S
C827        C828   1.403       .  A
C827        C832   1.401       .  A
C828        C829   1.404       .  A
C828        H841   1.083       .  S
C829        C830   1.417       .  A
C829        H842   1.078       .  S
C830        C836   1.436       .  A
C830        C831   1.423       .  A
C831        C833   1.398       .  A
C831        C832   1.404       .  A
C832        H843   1.084       .  S
C833        C834   1.387       .  A
C833        H844   1.084       .  S
C834        C835   1.398       .  A
C834        H845   1.084       .  S
C835        C836   1.423       .  A
C835        C840   1.403       .  A
C836        C837   1.418       .  A
C837        C838   1.404       .  A
C837        H846   1.078       .  S
C838        C839   1.401       .  A
C838        H847   1.083       .  S
C839        C840   1.401       .  A
C840        H848   1.084       .  S
C849        C850   1.402       .  A
C849        C854   1.402       .  A
C850        C851   1.398       .  A
C850        H863   1.083       .  S
C851        C852   1.415       .  A
C851        H864   1.077       .  S
C852        C858   1.432       .  A
C852        C853   1.422       .  A
C853        C855   1.399       .  A
C853        C854   1.405       .  A
C854        H865   1.084       .  S
C855        C856   1.389       .  A
C855        H866   1.084       .  S
C856        C857   1.400       .  A
C856        H867   1.084       .  S
C857        C858   1.421       .  A
C857        C862   1.406       .  A
C858        C859   1.413       .  A
C859        C860   1.398       .  A
C859        H868   1.078       .  S
C860        C861   1.406       .  A
C860        H869   1.082       .  S
C861        C862   1.406       .  A
C862        H870   1.081       .  S
C871        C872   1.403       .  A
C871        C876   1.404       .  A
C872        C873   1.395       .  A
C872        H885   1.083       .  S
C873        C874   1.413       .  A
C873        H886   1.077       .  S
C874        C880   1.432   1_455  A
C874        C875   1.423       .  A
C875        C877   1.400       .  A
C875        C876   1.411       .  A
C876        H887   1.084       .  S
C877        C878   1.392   1_455  A
C877        H888   1.084       .  S
C878        C879   1.400       .  A
C878        H889   1.084       .  S
C879        C880   1.422       .  A
C879        C884   1.409       .  A
C880        C881   1.415       .  A
C881        C882   1.396       .  A
C881        H890   1.077       .  S
C882        C883   1.402       .  A
C882        H891   1.083       .  S
C883        C884   1.404       .  A
C884        H892   1.084       .  S
C893        C894   1.399       .  A
C893        C898   1.400       .  A
C894        C895   1.395       .  A
C894        H907   1.083       .  S
C895        C896   1.415       .  A
C895        H908   1.077       .  S
C896        C902   1.428       .  A
C896        C897   1.422       .  A
C897        C899   1.399       .  A
C897        C898   1.403       .  A
C898        H909   1.084       .  S
C899        C900   1.388       .  A
C899        H910   1.084       .  S
C900        C901   1.399       .  A
C900        H911   1.084       .  S
C901        C902   1.422       .  A
C901        C906   1.403       .  A
C902        C903   1.414       .  A
C903        C904   1.396       .  A
C903        H912   1.077       .  S
C904        C905   1.401       .  A
C904        H913   1.083       .  S
C905        C906   1.401       .  A
C906        H914   1.084       .  S
C915        C916   1.399   1_545  A
C915        C920   1.402       .  A
C916        C917   1.394       .  A
C916        H929   1.083       .  S
C917        C918   1.414   1_565  A
C917        H930   1.077       .  S
C918        C924   1.429       .  A
C918        C919   1.422       .  A
C919        C921   1.400       .  A
C919        C920   1.407       .  A
C920        H931   1.084       .  S
C921        C922   1.391       .  A
C921        H932   1.084       .  S
C922        C923   1.400       .  A
C922        H933   1.084       .  S
C923        C924   1.422       .  A
C923        C928   1.406       .  A
C924        C925   1.414   1_545  A
C925        C926   1.394       .  A
C925        H934   1.077       .  S
C926        C927   1.399   1_565  A
C926        H935   1.083       .  S
C927        C928   1.402       .  A
C928        H936   1.084       .  S
C937        C938   1.403       .  A
C937        C942   1.409       .  A
C938        C939   1.381       .  A
C938        H951   1.084       .  S
C939        C940   1.408       .  A
C939        H952   1.078       .  S
C940        C946   1.424       .  A
C940        C941   1.422       .  A
C941        C943   1.403       .  A
C941        C942   1.415       .  A
C942        H953   1.081       .  S
C943        C944   1.397       .  A
C943        H954   1.084       .  S
C944        C945   1.403       .  A
C944        H955   1.084       .  S
C945        C946   1.422       .  A
C945        C950   1.414       .  A
C946        C947   1.409       .  A
C947        C948   1.381       .  A
C947        H956   1.078       .  S
C948        C949   1.402       .  A
C948        H957   1.084       .  S
C949        C950   1.409       .  A
C950        H958   1.081       .  S
C959        C960   1.398       .  A
C959        C964   1.399       .  A
C960        C961   1.399       .  A
C960        H973   1.084       .  S
C961        C962   1.417       .  A
C961        H974   1.077       .  S
C962        C968   1.434       .  A
C962        C963   1.423       .  A
C963        C965   1.400       .  A
C963        C964   1.408       .  A
C964        H975   1.082       .  S
C965        C966   1.391       .  A
C965        H976   1.084       .  S
C966        C967   1.400       .  A
C966        H977   1.084       .  S
C967        C968   1.424       .  A
C967        C972   1.408       .  A
C968        C969   1.415       .  A
C969        C970   1.398       .  A
C969        H978   1.077       .  S
C970        C971   1.400       .  A
C970        H979   1.084       .  S
C971        C972   1.398       .  A
C972        H980   1.082       .  S
C981        C982   1.401       .  A
C981        C986   1.402   1_545  A
C982        C983   1.400       .  A
C982        H995   1.083       .  S
C983        C984   1.417       .  A
C983        H996   1.077       .  S
C984        C990   1.431       .  A
C984        C985   1.421   1_545  A
C985        C987   1.399       .  A
C985        C986   1.402       .  A
C986        H997   1.084       .  S
C987        C988   1.388       .  A
C987        H998   1.084       .  S
C988        C989   1.398       .  A
C988        H999   1.084       .  S
C989        C990   1.424   1_565  A
C989        C994   1.404       .  A
C990        C991   1.414       .  A
C991        C992   1.397       .  A
C991       H1000   1.077       .  S
C992        C993   1.401   1_545  A
C992       H1001   1.083       .  S
C993        C994   1.399       .  A
C994       H1002   1.084       .  S
C1003      C1004   1.399       .  A
C1003      C1008   1.402   1_545  A
C1004      C1005   1.393       .  A
C1004      H1017   1.083       .  S
C1005      C1006   1.414       .  A
C1005      H1018   1.077       .  S
C1006      C1012   1.429       .  A
C1006      C1007   1.422   1_545  A
C1007      C1009   1.400       .  A
C1007      C1008   1.406       .  A
C1008      H1019   1.084       .  S
C1009      C1010   1.391       .  A
C1009      H1020   1.084       .  S
C1010      C1011   1.400       .  A
C1010      H1021   1.084       .  S
C1011      C1012   1.422   1_565  A
C1011      C1016   1.407       .  A
C1012      C1013   1.414       .  A
C1013      C1014   1.395       .  A
C1013      H1022   1.077       .  S
C1014      C1015   1.401       .  A
C1014      H1023   1.083       .  S
C1015      C1016   1.403   1_545  A
C1016      H1024   1.084       .  S
C1025      C1026   1.403       .  A
C1025      C1030   1.398       .  A
C1026      C1027   1.401       .  A
C1026      H1039   1.083   1_545  S
C1027      C1028   1.415       .  A
C1027      H1040   1.078       .  S
C1028      C1034   1.434       .  A
C1028      C1029   1.425       .  A
C1029      C1031   1.397       .  A
C1029      C1030   1.403       .  A
C1030      H1041   1.085       .  S
C1031      C1032   1.385       .  A
C1031      H1042   1.084       .  S
C1032      C1033   1.398       .  A
C1032      H1043   1.084       .  S
C1033      C1034   1.420       .  A
C1033      C1038   1.398       .  A
C1034      C1035   1.420       .  A
C1035      C1036   1.406       .  A
C1035      H1044   1.078       .  S
C1036      C1037   1.398       .  A
C1036      H1045   1.083       .  S
C1037      C1038   1.402       .  A
C1038      H1046   1.085       .  S
C1047      C1048   1.399       .  A
C1047      C1052   1.404       .  A
C1048      C1049   1.391       .  A
C1048      H1061   1.084       .  S
C1049      C1050   1.413       .  A
C1049      H1062   1.076       .  S
C1050      C1056   1.429       .  A
C1050      C1051   1.423       .  A
C1051      C1053   1.401   1_565  A
C1051      C1052   1.411       .  A
C1052      H1063   1.084   1_565  S
C1053      C1054   1.394   1_545  A
C1053      H1064   1.084       .  S
C1054      C1055   1.402       .  A
C1054      H1065   1.084   1_565  S
C1055      C1056   1.419       .  A
C1055      C1060   1.408       .  A
C1056      C1057   1.412       .  A
C1057      C1058   1.393       .  A
C1057      H1066   1.076       .  S
C1058      C1059   1.404       .  A
C1058      H1067   1.077       .  S
C1059      C1060   1.409       .  A
C1060      H1068   1.084       .  S
C1069      C1070   1.403   1_554  A
C1069      C1074   1.402   1_545  A
C1070      C1071   1.397       .  A
C1070      H1083   1.083       .  S
C1071      C1072   1.414       .  A
C1071      H1084   1.077       .  S
C1072      C1078   1.433       .  A
C1072      C1073   1.423   1_546  A
C1073      C1075   1.399       .  A
C1073      C1074   1.407       .  A
C1074      H1085   1.084       .  S
C1075      C1076   1.390       .  A
C1075      H1086   1.084       .  S
C1076      C1077   1.400   1_554  A
C1076      H1087   1.084       .  S
C1077      C1078   1.422   1_565  A
C1077      C1082   1.406       .  A
C1078      C1079   1.416       .  A
C1079      C1080   1.400       .  A
C1079      H1088   1.078       .  S
C1080      C1081   1.402       .  A
C1080      H1089   1.083       .  S
C1081      C1082   1.405   1_545  A
C1082      H1090   1.084   1_556  S
C1091      C1092   1.397       .  A
C1091      C1096   1.401   1_545  A
C1092      C1093   1.393       .  A
C1092      H1105   1.083       .  S
C1093      C1094   1.416   1_545  A
C1093      H1106   1.077       .  S
C1094      C1100   1.426       .  A
C1094      C1095   1.421       .  A
C1095      C1097   1.400       .  A
C1095      C1096   1.403       .  A
C1096      H1107   1.084       .  S
C1097      C1098   1.390       .  A
C1097      H1108   1.084       .  S
C1098      C1099   1.399       .  A
C1098      H1109   1.084       .  S
C1099      C1100   1.423       .  A
C1099      C1104   1.406       .  A
C1100      C1101   1.412   1_565  A
C1101      C1102   1.391       .  A
C1101      H1110   1.077       .  S
C1102      C1103   1.401   1_545  A
C1102      H1111   1.083       .  S
C1103      C1104   1.402       .  A
C1104      H1112   1.084       .  S
C1113      C1114   1.401       .  A
C1113      C1118   1.409       .  A
C1114      C1115   1.399       .  A
C1114      H1127   1.081       .  S
C1115      C1116   1.416       .  A
C1115      H1128   1.077       .  S
C1116      C1122   1.430       .  A
C1116      C1117   1.419       .  A
C1117      C1119   1.401       .  A
C1117      C1118   1.404       .  A
C1118      H1129   1.082       .  S
C1119      C1120   1.391       .  A
C1119      H1130   1.084       .  S
C1120      C1121   1.399       .  A
C1120      H1131   1.084       .  S
C1121      C1122   1.424       .  A
C1121      C1126   1.408       .  A
C1122      C1123   1.412       .  A
C1123      C1124   1.394       .  A
C1123      H1132   1.078       .  S
C1124      C1125   1.401       .  A
C1124      H1133   1.083       .  S
C1125      C1126   1.400       .  A
C1126      H1134   1.084       .  S
C1135      C1136   1.402       .  A
C1135      C1140   1.401       .  A
C1136      C1137   1.398       .  A
C1136      H1149   1.083       .  S
C1137      C1138   1.415       .  A
C1137      H1150   1.077       .  S
C1138      C1144   1.431       .  A
C1138      C1139   1.423       .  A
C1139      C1141   1.399       .  A
C1139      C1140   1.404       .  A
C1140      H1151   1.084       .  S
C1141      C1142   1.388       .  A
C1141      H1152   1.084   1_545  S
C1142      C1143   1.399       .  A
C1142      H1153   1.084       .  S
C1143      C1144   1.420       .  A
C1143      C1148   1.402       .  A
C1144      C1145   1.414       .  A
C1145      C1146   1.399       .  A
C1145      H1154   1.077       .  S
C1146      C1147   1.407       .  A
C1146      H1155   1.077       .  S
C1147      C1148   1.405       .  A
C1148      H1156   1.085       .  S
C1157      C1158   1.399       .  A
C1157      C1162   1.399       .  A
C1158      C1159   1.398       .  A
C1158      H1171   1.081       .  S
C1159      C1160   1.415       .  A
C1159      H1172   1.078       .  S
C1160      C1166   1.427       .  A
C1160      C1161   1.421       .  A
C1161      C1163   1.398       .  A
C1161      C1162   1.399       .  A
C1162      H1173   1.085       .  S
C1163      C1164   1.386       .  A
C1163      H1174   1.084       .  S
C1164      C1165   1.398       .  A
C1164      H1175   1.084       .  S
C1165      C1166   1.422       .  A
C1165      C1170   1.399       .  A
C1166      C1167   1.415       .  A
C1167      C1168   1.397       .  A
C1167      H1176   1.078       .  S
C1168      C1169   1.396       .  A
C1168      H1177   1.077       .  S
C1169      C1170   1.399       .  A
C1170      H1178   1.085       .  S
C1179      C1180   1.407       .  A
C1179      C1184   1.407       .  A
C1180      C1181   1.396       .  A
C1180      H1193   1.078       .  S
C1181      C1182   1.412       .  A
C1181      H1194   1.077       .  S
C1182      C1188   1.432       .  A
C1182      C1183   1.421       .  A
C1183      C1185   1.400       .  A
C1183      C1184   1.406       .  A
C1184      H1195   1.084       .  S
C1185      C1186   1.390   1_565  A
C1185      H1196   1.084   1_565  S
C1186      C1187   1.400   1_545  A
C1186      H1197   1.084       .  S
C1187      C1188   1.422       .  A
C1187      C1192   1.406       .  A
C1188      C1189   1.415       .  A
C1189      C1190   1.397       .  A
C1189      H1198   1.077       .  S
C1190      C1191   1.401       .  A
C1190      H1199   1.083       .  S
C1191      C1192   1.403       .  A
C1192      H1200   1.084   1_565  S
C1201      C1202   1.402       .  A
C1201      C1206   1.403       .  A
C1202      C1203   1.394       .  A
C1202      H1215   1.083       .  S
C1203      C1204   1.413       .  A
C1203      H1216   1.077       .  S
C1204      C1210   1.429       .  A
C1204      C1205   1.423       .  A
C1205      C1207   1.400       .  A
C1205      C1206   1.409       .  A
C1206      H1217   1.084       .  S
C1207      C1208   1.392       .  A
C1207      H1218   1.084       .  S
C1208      C1209   1.400       .  A
C1208      H1219   1.084       .  S
C1209      C1210   1.422       .  A
C1209      C1214   1.407       .  A
C1210      C1211   1.415       .  A
C1211      C1212   1.395       .  A
C1211      H1220   1.077       .  S
C1212      C1213   1.398       .  A
C1212      H1221   1.083       .  S
C1213      C1214   1.401       .  A
C1214      H1222   1.084       .  S
C1223      C1224   1.401       .  A
C1223      C1228   1.408       .  A
C1224      C1225   1.400       .  A
C1224      H1237   1.079       .  S
C1225      C1226   1.417       .  A
C1225      H1238   1.078       .  S
C1226      C1232   1.430       .  A
C1226      C1227   1.418       .  A
C1227      C1229   1.402       .  A
C1227      C1228   1.404       .  A
C1228      H1239   1.083       .  S
C1229      C1230   1.392       .  A
C1229      H1240   1.084       .  S
C1230      C1231   1.399       .  A
C1230      H1241   1.084       .  S
C1231      C1232   1.425       .  A
C1231      C1236   1.411       .  A
C1232      C1233   1.410       .  A
C1233      C1234   1.392       .  A
C1233      H1242   1.078       .  S
C1234      C1235   1.403       .  A
C1234      H1243   1.083       .  S
C1235      C1236   1.401       .  A
C1236      H1244   1.083       .  S
C1245      C1246   1.399       .  A
C1245      C1250   1.404       .  A
C1246      C1247   1.405       .  A
C1246      H1259   1.083       .  S
C1247      C1248   1.419       .  A
C1247      H1260   1.078       .  S
C1248      C1254   1.437       .  A
C1248      C1249   1.422       .  A
C1249      C1251   1.400       .  A
C1249      C1250   1.407       .  A
C1250      H1261   1.085       .  S
C1251      C1252   1.391       .  A
C1251      H1262   1.084       .  S
C1252      C1253   1.400       .  A
C1252      H1263   1.084       .  S
C1253      C1254   1.423       .  A
C1253      C1258   1.409       .  A
C1254      C1255   1.416       .  A
C1255      C1256   1.402       .  A
C1255      H1264   1.077       .  S
C1256      C1257   1.399       .  A
C1256      H1265   1.080       .  S
C1257      C1258   1.405       .  A
C1258      H1266   1.085       .  S
C1267      C1268   1.400       .  A
C1267      C1272   1.398       .  A
C1268      C1269   1.392       .  A
C1268      H1281   1.084       .  S
C1269      C1270   1.413       .  A
C1269      H1282   1.077       .  S
C1270      C1276   1.427       .  A
C1270      C1271   1.422       .  A
C1271      C1273   1.400       .  A
C1271      C1272   1.406       .  A
C1272      H1283   1.079       .  S
C1273      C1274   1.391       .  A
C1273      H1284   1.084       .  S
C1274      C1275   1.400       .  A
C1274      H1285   1.084       .  S
C1275      C1276   1.423       .  A
C1275      C1280   1.406       .  A
C1276      C1277   1.413       .  A
C1277      C1278   1.392       .  A
C1277      H1286   1.077       .  S
C1278      C1279   1.400       .  A
C1278      H1287   1.083       .  S
C1279      C1280   1.399       .  A
C1280      H1288   1.082       .  S
C1289      C1290   1.401       .  A
C1289      C1294   1.403       .  A
C1290      C1291   1.403       .  A
C1290      H1303   1.077       .  S
C1291      C1292   1.416       .  A
C1291      H1304   1.078       .  S
C1292      C1298   1.435       .  A
C1292      C1293   1.422       .  A
C1293      C1295   1.399       .  A
C1293      C1294   1.405       .  A
C1294      H1305   1.084       .  S
C1295      C1296   1.388       .  A
C1295      H1306   1.084       .  S
C1296      C1297   1.399       .  A
C1296      H1307   1.084       .  S
C1297      C1298   1.422       .  A
C1297      C1302   1.404       .  A
C1298      C1299   1.417       .  A
C1299      C1300   1.403       .  A
C1299      H1308   1.078       .  S
C1300      C1301   1.400       .  A
C1300      H1309   1.077       .  S
C1301      C1302   1.403       .  A
C1302      H1310   1.084       .  S
C1311      C1312   1.399       .  A
C1311      C1316   1.403       .  A
C1312      C1313   1.394       .  A
C1312      H1325   1.083       .  S
C1313      C1314   1.415       .  A
C1313      H1326   1.077       .  S
C1314      C1320   1.428       .  A
C1314      C1315   1.421       .  A
C1315      C1317   1.400       .  A
C1315      C1316   1.405       .  A
C1316      H1327   1.084       .  S
C1317      C1318   1.392       .  A
C1317      H1328   1.084       .  S
C1318      C1319   1.400       .  A
C1318      H1329   1.084       .  S
C1319      C1320   1.423       .  A
C1319      C1324   1.408       .  A
C1320      C1321   1.412       .  A
C1321      C1322   1.392       .  A
C1321      H1330   1.077       .  S
C1322      C1323   1.400       .  A
C1322      H1331   1.083       .  S
C1323      C1324   1.401       .  A
C1324      H1332   1.084       .  S
C1333      C1334   1.401       .  A
C1333      C1338   1.402       .  A
C1334      C1335   1.398       .  A
C1334      H1347   1.083       .  S
C1335      C1336   1.415       .  A
C1335      H1348   1.077       .  S
C1336      C1342   1.430       .  A
C1336      C1337   1.422       .  A
C1337      C1339   1.399       .  A
C1337      C1338   1.403       .  A
C1338      H1349   1.084       .  S
C1339      C1340   1.388       .  A
C1339      H1350   1.084       .  S
C1340      C1341   1.399       .  A
C1340      H1351   1.084       .  S
C1341      C1342   1.421       .  A
C1341      C1346   1.405       .  A
C1342      C1343   1.413       .  A
C1343      C1344   1.396       .  A
C1343      H1352   1.077       .  S
C1344      C1345   1.406       .  A
C1344      H1353   1.083       .  S
C1345      C1346   1.406       .  A
C1346      H1354   1.081       .  S
C1355      C1356   1.401       .  A
C1355      C1360   1.404       .  A
C1356      C1357   1.395       .  A
C1356      H1369   1.083       .  S
C1357      C1358   1.414       .  A
C1357      H1370   1.077       .  S
C1358      C1364   1.430       .  A
C1358      C1359   1.422       .  A
C1359      C1361   1.400       .  A
C1359      C1360   1.408       .  A
C1360      H1371   1.084       .  S
C1361      C1362   1.392       .  A
C1361      H1372   1.084       .  S
C1362      C1363   1.401       .  A
C1362      H1373   1.084       .  S
C1363      C1364   1.422       .  A
C1363      C1368   1.409       .  A
C1364      C1365   1.411       .  A
C1365      C1366   1.392       .  A
C1365      H1374   1.076       .  S
C1366      C1367   1.404       .  A
C1366      H1375   1.083       .  S
C1367      C1368   1.408       .  A
C1368      H1376   1.080       .  S
C1377      C1378   1.399       .  A
C1377      C1382   1.402       .  A
C1378      C1379   1.395       .  A
C1378      H1391   1.083       .  S
C1379      C1380   1.415       .  A
C1379      H1392   1.077       .  S
C1380      C1386   1.427       .  A
C1380      C1381   1.421       .  A
C1381      C1383   1.399       .  A
C1381      C1382   1.402       .  A
C1382      H1393   1.084       .  S
C1383      C1384   1.388       .  A
C1383      H1394   1.084       .  S
C1384      C1385   1.399       .  A
C1384      H1395   1.084       .  S
C1385      C1386   1.423       .  A
C1385      C1390   1.403       .  A
C1386      C1387   1.414       .  A
C1387      C1388   1.394       .  A
C1387      H1396   1.077       .  S
C1388      C1389   1.399       .  A
C1388      H1397   1.082       .  S
C1389      C1390   1.400       .  A
C1390      H1398   1.084       .  S
C1399      C1400   1.398       .  A
C1399      C1404   1.401       .  A
C1400      C1401   1.396       .  A
C1400      H1413   1.084       .  S
C1401      C1402   1.415       .  A
C1401      H1414   1.078       .  S
C1402      C1408   1.429       .  A
C1402      C1403   1.422       .  A
C1403      C1405   1.401       .  A
C1403      C1404   1.408       .  A
C1404      H1415   1.085       .  S
C1405      C1406   1.393       .  A
C1405      H1416   1.084       .  S
C1406      C1407   1.400       .  A
C1406      H1417   1.084       .  S
C1407      C1408   1.422       .  A
C1407      C1412   1.410       .  A
C1408      C1409   1.410       .  A
C1409      C1410   1.393       .  A
C1409      H1418   1.078       .  S
C1410      C1411   1.406       .  A
C1410      H1419   1.082       .  S
C1411      C1412   1.402       .  A
C1412      H1420   1.082       .  S
C1421      C1422   1.401       .  A
C1421      C1426   1.402       .  A
C1422      C1423   1.397       .  A
C1422      H1435   1.083       .  S
C1423      C1424   1.415       .  A
C1423      H1436   1.078       .  S
C1424      C1430   1.431       .  A
C1424      C1425   1.422       .  A
C1425      C1427   1.400       .  A
C1425      C1426   1.407       .  A
C1426      H1437   1.084       .  S
C1427      C1428   1.391       .  A
C1427      H1438   1.084       .  S
C1428      C1429   1.400       .  A
C1428      H1439   1.084       .  S
C1429      C1430   1.421       .  A
C1429      C1434   1.408       .  A
C1430      C1431   1.412       .  A
C1431      C1432   1.395       .  A
C1431      H1440   1.077       .  S
C1432      C1433   1.405       .  A
C1432      H1441   1.083       .  S
C1433      C1434   1.407       .  A
C1434      H1442   1.079       .  S
C1443      C1444   1.400   1_556  A
C1443      C1448   1.403       .  A
C1444      C1445   1.395       .  A
C1444      H1457   1.083       .  S
C1445      C1446   1.415       .  A
C1445      H1458   1.077       .  S
C1446      C1452   1.429       .  A
C1446      C1447   1.422   1_554  A
C1447      C1449   1.400       .  A
C1447      C1448   1.404       .  A
C1448      H1459   1.084       .  S
C1449      C1450   1.390       .  A
C1449      H1460   1.084       .  S
C1450      C1451   1.399   1_556  A
C1450      H1461   1.084       .  S
C1451      C1452   1.422       .  A
C1451      C1456   1.405       .  A
C1452      C1453   1.414       .  A
C1453      C1454   1.394       .  A
C1453      H1462   1.076       .  S
C1454      C1455   1.400       .  A
C1454      H1463   1.083       .  S
C1455      C1456   1.402       .  A
C1456      H1464   1.084       .  S
