geometry optimzed in LAMMPS
_audit_creation_date              2020-12-01 
_audit_creation_method            'lammps2cif' 
_symmetry_space_group_name_H-M    'P1' 
_symmetry_Int_Tables_number       1 
_symmetry_cell_setting            triclinic 
loop_ 
_symmetry_equiv_pos_as_xyz 
  x,y,z 
_cell_length_a                    52.10724461 
_cell_length_b                    52.00394680939085 
_cell_length_c                    38.851528322809806 
_cell_angle_alpha                 89.86863439485103 
_cell_angle_beta                  89.80971002195905 
_cell_angle_gamma                 90.18225851826075 
loop_ 
_atom_site_label 
_atom_site_type_symbol 
_atom_site_fract_x 
_atom_site_fract_y 
_atom_site_fract_z 
_atom_site_charge 
N1          N  0.99922698  0.76514439  0.47839850    -0.03300
C2          C  0.00355357  0.73957289  0.47324155    -0.00700
C3          C  0.01074770  0.72618461  0.00563024    -0.23600
C4          C  0.01044283  0.74453225  0.03065341    -0.23800
C5          C  0.00384939  0.76735298  0.01481727    -0.00800
H6          H  0.01487866  0.70596745  0.00920516     0.12900
H7          H  0.01454256  0.74158852  0.05767086     0.13000
N8          N  0.98809937  0.23205631  0.02500209    -0.03300
C9          C  0.98220542  0.25700333  0.03127138    -0.00700
C10         C  0.97343872  0.26762558  0.50236941    -0.23600
C11         C  0.97468773  0.24960430  0.47679640    -0.23800
C12         C  0.98383424  0.22733178  0.49174674    -0.00800
H13         H  0.96790762  0.28755370  0.49944466     0.12900
H14         H  0.96988352  0.25250973  0.44998806     0.13000
N15         N  0.73030453  0.01074333  0.46972003    -0.03300
C16         C  0.75473803  0.01843267  0.46306395    -0.00700
C17         C  0.76244345  0.03731584  0.98883906    -0.23600
C18         C  0.74353729  0.03665027  0.01344736    -0.23800
C19         C  0.72308365  0.02368558  0.99909312    -0.00800
H20         H  0.78155162  0.04521174  0.99180323     0.12900
H21         H  0.74472572  0.04429064  0.03928338     0.13000
N22         N  0.26586619  0.99123550  0.01961526    -0.03300
C23         C  0.24033588  0.98665525  0.02436811    -0.00700
C24         C  0.22902960  0.97405556  0.49532839    -0.23600
C25         C  0.24811184  0.97353916  0.47113220    -0.23800
C26         C  0.27001574  0.98239100  0.48706536    -0.00800
H27         H  0.20901581  0.96943420  0.49109477     0.12900
H28         H  0.24611164  0.96805386  0.44441510     0.13000
N29         N  0.47160621  0.73253029  0.48310539    -0.03300
C30         C  0.46479651  0.75709058  0.47507028    -0.00700
C31         C  0.45662801  0.76979610  0.00548040    -0.23600
C32         C  0.45725120  0.75232040  0.03177082    -0.23800
C33         C  0.46830524  0.73023774  0.01874770    -0.00800
H34         H  0.44994130  0.78944494  0.00707700     0.12900
H35         H  0.45073626  0.75549446  0.05789959     0.13000
N36         N  0.51731502  0.26773506  0.02921537    -0.03300
C37         C  0.52609811  0.24344125  0.03472398    -0.00700
C38         C  0.53130472  0.23214353  0.50450143    -0.23600
C39         C  0.52947494  0.25062678  0.47959982    -0.23800
C40         C  0.51915321  0.27199830  0.49527807    -0.00800
H41         H  0.53819045  0.21270537  0.50098617     0.12900
H42         H  0.53511540  0.24877248  0.45288183     0.13000
N43         N  0.23699909  0.49709603  0.02716315    -0.03300
C44         C  0.26239934  0.50047850  0.03372561    -0.00700
C45         C  0.27579738  0.50417834  0.50406324    -0.23600
C46         C  0.25837145  0.50320687  0.47785961    -0.23800
C47         C  0.23467027  0.49893606  0.49288292    -0.00800
H48         H  0.29634141  0.50670060  0.50144604     0.12900
H49         H  0.26250461  0.50536887  0.45068337     0.13000
N50         N  0.76658196  0.49897386  0.48523289    -0.03300
C51         C  0.74093194  0.49612359  0.48002076    -0.00700
C52         C  0.72803800  0.49279341  0.01124222    -0.23600
C53         C  0.74611101  0.49285710  0.03666556    -0.23800
C54         C  0.76953103  0.49666148  0.02070093    -0.00800
H55         H  0.70750894  0.49078107  0.01472654     0.12900
H56         H  0.74259120  0.49046643  0.06396062     0.13000
O57         O  0.48345886  0.51342212  0.19919416    -0.88200
C58         C  0.47165821  0.54545987  0.29382496     0.87800
Mg59       Mg  0.47400348  0.47454967  0.18674945     1.58100
O60         O  0.53635244  0.53306399  0.27549138    -0.87900
O61         O  0.51714184  0.53908662  0.19913117    -0.75300
C62         C  0.51906882  0.41109940  0.32082066     0.92900
O63         O  0.43940234  0.50061525  0.25473804    -0.75100
O64         O  0.50440227  0.40816578  0.29504581    -0.82600
Mg65       Mg  0.45426656  0.53547028  0.22437350     1.58000
C66         C  0.58276748  0.49689073  0.34438009     0.92800
O67         O  0.46546290  0.57091453  0.19233817    -0.80800
H68         H  0.56704957  0.53745160  0.24496669    -0.06200
C69         C  0.49736730  0.47958362  0.33022630     0.87700
O70         O  0.51610366  0.46287383  0.19520683    -0.75300
O71         O  0.48076832  0.54433482  0.26443036    -0.88100
O72         O  0.56892811  0.51706586  0.34215978    -0.80900
C73         C  0.52407724  0.58897980  0.32884760     0.92900
C74         C  0.47926452  0.59105180  0.19503925     0.92800
Mg75       Mg  0.54590071  0.46602200  0.29179505     1.58000
O76         O  0.53318858  0.43099073  0.32410844    -0.80800
O77         O  0.56141982  0.50081294  0.26153459    -0.75100
O78         O  0.51536053  0.58838862  0.29811672    -0.80900
O79         O  0.42446825  0.52582359  0.18468745    -0.82600
O80         O  0.48482171  0.41304690  0.21667142    -0.81000
C81         C  0.55551319  0.52452220  0.26047070     0.87200
O82         O  0.51984171  0.45734564  0.25089227    -0.88100
O83         O  0.51686848  0.48852648  0.31620964    -0.88200
O84         O  0.48322379  0.46280224  0.31569484    -0.75300
Mg85       Mg  0.51584381  0.56252055  0.24942563     1.58000
O86         O  0.53447171  0.56929577  0.34252681    -0.82600
H87         H  0.50802286  0.51533178  0.15960446    -0.06400
O88         O  0.46441158  0.46867022  0.23967864    -0.87900
H89         H  0.43403355  0.46379744  0.27061911    -0.06200
H90         H  0.54888271  0.45088311  0.21826955    -0.06400
C91         C  0.44534264  0.47693810  0.25513121     0.87200
C92         C  0.50277806  0.52241720  0.18479640     0.87800
C93         C  0.52907577  0.45653565  0.22153597     0.87800
H94         H  0.49183928  0.48670111  0.35529305    -0.06300
O95         O  0.48468706  0.53925319  0.32014146    -0.75400
Mg96       Mg  0.48461063  0.43925683  0.26532019     1.58000
H97         H  0.45190191  0.55127022  0.29714389    -0.06400
C98         C  0.41745793  0.50419268  0.17270879     0.92800
O99         O  0.46613879  0.43286445  0.17256352    -0.82600
C100        C  0.47581861  0.41278233  0.18607623     0.92900
O101        O  0.49548920  0.59369041  0.21922867    -0.82600
Mg102      Mg  0.52670724  0.52740260  0.32864670     1.58200
O103        O  0.43193322  0.48448459  0.17413886    -0.80900
O104        O  0.57525257  0.47540537  0.33241552    -0.82600
O105        O  0.51226753  0.01311575  0.18650609    -0.88200
C106        C  0.54512394  0.02071606  0.28113278     0.87800
Mg107      Mg  0.47418418  0.02596248  0.17568561     1.58100
O108        O  0.52807127  0.95723175  0.26269324    -0.87900
O109        O  0.53425819  0.97692320  0.18617946    -0.75300
C110        C  0.40769265  0.98119051  0.30959787     0.92900
O111        O  0.50358678  0.05720001  0.24336428    -0.75100
O112        O  0.40655764  0.99769969  0.28545339    -0.82600
Mg113      Mg  0.53676597  0.03987608  0.21228762     1.58000
C114        C  0.48886220  0.91217926  0.33226569     0.92800
O115        O  0.57065147  0.02629588  0.17987508    -0.80800
H116        H  0.53028547  0.92645001  0.23209752    -0.06200
C117        C  0.47823522  0.99874752  0.31944486     0.87700
O118        O  0.45959014  0.98438776  0.18381357    -0.75300
O119        O  0.54337257  0.01209891  0.25156573    -0.88100
O120        O  0.51020550  0.92440095  0.33034030    -0.80900
C121        C  0.58513825  0.96618922  0.31459747     0.92900
C122        C  0.58925706  0.01053530  0.18046699     0.92800
Mg123      Mg  0.46090426  0.95176444  0.27957919     1.58000
O124        O  0.42637966  0.96553081  0.31194360    -0.80800
O125        O  0.49425078  0.93432762  0.24888808    -0.75100
O126        O  0.58469641  0.97493605  0.28382122    -0.80900
O127        O  0.52978677  0.07064892  0.17305460    -0.82600
O128        O  0.41301740  0.01702590  0.20696540    -0.81000
C129        C  0.51824678  0.93869573  0.24771273     0.87200
O130        O  0.45435951  0.97938237  0.23953470    -0.88100
O131        O  0.48540133  0.97874839  0.30502622    -0.88200
O132        O  0.46289270  0.01455167  0.30522922    -0.75300
Mg133      Mg  0.55855200  0.97586492  0.23570247     1.58000
O134        O  0.56528396  0.95614212  0.32858605    -0.82600
H135        H  0.51118082  0.98843469  0.14712056    -0.06400
O136        O  0.46983031  0.03437134  0.22917084    -0.87900
H137        H  0.46753978  0.06485288  0.26030093    -0.06200
H138        H  0.44590048  0.95161515  0.20582455    -0.06400
C139        C  0.47960461  0.05277494  0.24449030     0.87200
C140        C  0.51907175  0.99296145  0.17209787     0.87800
C141        C  0.45278849  0.97101646  0.20979515     0.87800
H142        H  0.48585314  0.00330642  0.34456476    -0.06300
O143        O  0.53816939  0.00771054  0.30732034    -0.75400
Mg144      Mg  0.43912348  0.01559034  0.25519933     1.58000
H145        H  0.55216907  0.04010183  0.28473696    -0.06400
C146        C  0.50916863  0.08035234  0.16152866     0.92800
O147        O  0.43273805  0.03667189  0.16322232    -0.82600
C148        C  0.41269912  0.02658958  0.17664312     0.92900
O149        O  0.59099925  0.99338079  0.20378046    -0.82600
Mg150      Mg  0.52366999  0.96633231  0.31614665     1.58200
O151        O  0.48776075  0.06823217  0.16333467    -0.80900
O152        O  0.46834685  0.92128050  0.31945499    -0.82600
O153        O  0.01591445  0.98584254  0.19113126    -0.88200
C154        C  0.02503641  0.95325026  0.28601834     0.87800
Mg155      Mg  0.02725796  0.02435115  0.17980888     1.58100
O156        O  0.96156621  0.97018781  0.26725749    -0.87900
O157        O  0.98057298  0.96265585  0.19099716    -0.75300
C158        C  0.98540705  0.08986997  0.31519089     0.92900
O159        O  0.06081059  0.99542620  0.24618035    -0.75100
O160        O  0.00135409  0.09163089  0.29044206    -0.82600
Mg161      Mg  0.04369448  0.96175204  0.21576713     1.58000
C162        C  0.91609286  0.00813414  0.33544740     0.92800
O163        O  0.02976569  0.92688992  0.18369803    -0.80800
H164        H  0.93082364  0.96769895  0.23672521    -0.06200
C165        C  0.00281684  0.01986758  0.32400937     0.87700
O166        O  0.98597685  0.03818431  0.18926533    -0.75300
O167        O  0.01646265  0.95464130  0.25638410    -0.88100
O168        O  0.92868571  0.98717664  0.33295959    -0.80900
C169        C  0.96866168  0.91280842  0.32000543     0.92900
C170        C  0.01420472  0.90805786  0.18723631     0.92800
Mg171      Mg  0.95555615  0.03708556  0.28509439     1.58000
O172        O  0.96982549  0.07103516  0.31764544    -0.80800
O173        O  0.93811182  0.00374749  0.25417123    -0.75100
O174        O  0.97834508  0.91300076  0.28975490    -0.80900
O175        O  0.07423567  0.97021167  0.17537674    -0.82600
O176        O  0.01938586  0.08549654  0.21179582    -0.81000
C177        C  0.94290695  0.97982625  0.25245535     0.87200
O178        O  0.98248637  0.04405480  0.24495034    -0.88100
O179        O  0.98286949  0.01263991  0.30959241    -0.88200
O180        O  0.01856393  0.03539551  0.30975267    -0.75300
Mg181      Mg  0.98007669  0.93933947  0.24148087     1.58000
O182        O  0.95945116  0.93311692  0.33344910    -0.82600
H183        H  0.99173660  0.98555387  0.15127358    -0.06400
O184        O  0.03706153  0.02875131  0.23299303    -0.87900
H185        H  0.06806460  0.03164309  0.26295249    -0.06200
H186        H  0.95395837  0.05212656  0.21239914    -0.06400
C187        C  0.05593095  0.01933109  0.24754901     0.87200
C188        C  0.99620565  0.97818726  0.17659178     0.87800
C189        C  0.97340659  0.04536893  0.21561163     0.87800
H190        H  0.00738272  0.01213024  0.34909647    -0.06300
O191        O  0.01189027  0.96010195  0.31208749    -0.75400
Mg192      Mg  0.01881649  0.05930800  0.25971392     1.58000
H193        H  0.04443212  0.94651050  0.28980194    -0.06400
C194        C  0.08190709  0.99156594  0.16280852     0.92800
O195        O  0.03719786  0.06585323  0.16683802    -0.82600
C196        C  0.02789196  0.08586681  0.18096528     0.92900
O197        O  0.99818217  0.90704422  0.21196968    -0.82600
Mg198      Mg  0.97045130  0.97438801  0.32057826     1.58200
O199        O  0.06846690  0.01198626  0.16511190    -0.80900
O200        O  0.92534763  0.02942180  0.32502414    -0.82600
O201        O  0.98883060  0.48083320  0.19611356    -0.88200
C202        C  0.95616170  0.46828720  0.28998145     0.87800
Mg203      Mg  0.02731570  0.46937335  0.18496539     1.58100
O204        O  0.97289513  0.53255686  0.27503510    -0.87900
O205        O  0.96584814  0.51619821  0.19773803    -0.75300
C206        C  0.09348194  0.50923760  0.32106273     0.92900
O207        O  0.99793497  0.43451735  0.24905871    -0.75100
O208        O  0.09436539  0.49365480  0.29589824    -0.82600
Mg209      Mg  0.96442770  0.45244796  0.21904784     1.58000
C210        C  0.00947270  0.57659178  0.34670331     0.92800
O211        O  0.92969909  0.46714856  0.18724607    -0.80800
H212        H  0.97031595  0.56435017  0.24621211    -0.06200
C213        C  0.02304431  0.49040266  0.33005968     0.87700
O214        O  0.04123303  0.51073854  0.19595215    -0.75300
O215        O  0.95718216  0.47805564  0.26091265    -0.88100
O216        O  0.98911820  0.56314059  0.34307540    -0.80900
C217        C  0.91546297  0.52316437  0.32682171     0.92900
C218        C  0.91094262  0.48257430  0.19142622     0.92800
Mg219      Mg  0.03983033  0.53939511  0.29369218     1.58000
O220        O  0.07475109  0.52474396  0.32508092    -0.80800
O221        O  0.00623659  0.55706150  0.26368304    -0.75100
O222        O  0.91543660  0.51458500  0.29603930    -0.80900
O223        O  0.97282096  0.42369655  0.17740300    -0.82600
O224        O  0.08883731  0.47696233  0.21669376    -0.81000
C225        C  0.98243036  0.55190890  0.26140382     0.87200
O226        O  0.04715201  0.51352004  0.25179979    -0.88100
O227        O  0.01563157  0.51066656  0.31657720    -0.88200
O228        O  0.03856605  0.47526221  0.31497489    -0.75300
Mg229      Mg  0.94211122  0.51486291  0.24794300     1.58000
O230        O  0.93587249  0.53160277  0.34080062    -0.82600
H231        H  0.98908189  0.50656544  0.15777392    -0.06400
O232        O  0.03142826  0.45881988  0.23773187    -0.87900
H233        H  0.03381700  0.42699082  0.26652340    -0.06200
H234        H  0.05479882  0.54272707  0.21973419    -0.06400
C235        C  0.02177700  0.43952186  0.25135702     0.87200
C236        C  0.98145321  0.50112312  0.18267255     0.87800
C237        C  0.04824172  0.52308655  0.22259889     0.87800
H238        H  0.01545875  0.48500816  0.35499905    -0.06300
O239        O  0.96332179  0.48042287  0.31670206    -0.75400
Mg240      Mg  0.06221912  0.47661190  0.26480973     1.58000
H241        H  0.94960743  0.44862883  0.29263358    -0.06400
C242        C  0.99417730  0.41498835  0.16662579     0.92800
O243        O  0.06861952  0.45941536  0.17212112    -0.82600
C244        C  0.08891835  0.46827513  0.18596789     0.92900
O245        O  0.90996083  0.49783011  0.21693125    -0.82600
Mg246      Mg  0.97711437  0.52175085  0.32777110     1.58200
O247        O  0.01504509  0.42770167  0.17001894    -0.80900
O248        O  0.03114250  0.56874339  0.33563470    -0.82600
C249        C  0.83446816  0.52620695  0.14596895    -0.17700
C250        C  0.81559967  0.52923871  0.12089109    -0.19800
C251        C  0.81485463  0.51283519  0.09232862     0.20800
C252        C  0.83357260  0.49348875  0.08852387    -0.02800
C253        C  0.85258819  0.49035420  0.11398222    -0.05800
C254        C  0.85284934  0.50669608  0.14289462     0.21100
C255        C  0.87109362  0.47073262  0.11073920     0.19200
C256        C  0.87047463  0.45456760  0.08182128    -0.17300
C257        C  0.85151703  0.45759393  0.05661230    -0.19500
C258        C  0.83286054  0.47687771  0.05980700     0.20700
C259        C  0.81290589  0.47924052  0.03566955    -0.32500
C260        C  0.79363297  0.49772635  0.04045753     0.01400
C261        C  0.79507797  0.51479906  0.06827781    -0.23900
C262        C  0.87148512  0.50335713  0.16829885    -0.28500
C263        C  0.89021665  0.48403221  0.16534731     0.07100
C264        C  0.88986203  0.46771331  0.13642248    -0.27100
H265        H  0.83453656  0.53898404  0.16796256     0.11800
H266        H  0.80136030  0.54419374  0.12408501     0.13000
H267        H  0.88454367  0.43943493  0.07882706     0.12000
H268        H  0.85126929  0.44464359  0.03480867     0.11300
H269        H  0.81149265  0.46583458  0.01442468     0.16700
H270        H  0.78004796  0.52892593  0.07195909     0.12600
H271        H  0.87158793  0.51622288  0.19021258     0.15400
H272        H  0.90427808  0.45286807  0.13372160     0.15200
C273        C  0.83079096  0.48418646  0.35299603    -0.17700
C274        C  0.81004586  0.48049912  0.37550646    -0.19800
C275        C  0.80815467  0.49480804  0.40600338     0.20800
C276        C  0.82725120  0.51321713  0.41369110    -0.02800
C277        C  0.84830437  0.51679398  0.39110419    -0.05800
C278        C  0.85011805  0.50213995  0.36066272     0.21100
C279        C  0.86777815  0.53464401  0.39936173     0.19200
C280        C  0.86574116  0.54917660  0.42964758    -0.17300
C281        C  0.84479120  0.54579482  0.45185071    -0.19500
C282        C  0.82558094  0.52771527  0.44426527     0.20700
C283        C  0.80499656  0.52355679  0.46701506    -0.32500
C284        C  0.78627419  0.50472674  0.46007690     0.01400
C285        C  0.78784024  0.49064754  0.42928935    -0.23900
C286        C  0.87152643  0.50521587  0.33890267    -0.28500
C287        C  0.89146105  0.52235772  0.34753883     0.07100
C288        C  0.88922848  0.53722996  0.37764155    -0.27100
H289        H  0.83188667  0.47273678  0.32977445     0.11800
H290        H  0.79556399  0.46629645  0.36917897     0.13000
H291        H  0.88049257  0.56300119  0.43634302     0.12000
H292        H  0.84379541  0.55708398  0.47522125     0.11300
H293        H  0.80366228  0.53476093  0.49041870     0.16700
H294        H  0.77375340  0.47585454  0.42405362     0.12600
H295        H  0.87313928  0.49350932  0.31594706     0.15400
H296        H  0.90441573  0.55054744  0.38448897     0.15200
C297        C  0.66459843  0.45531620  0.37589176    -0.17700
C298        C  0.68830155  0.45575218  0.39265154    -0.19800
C299        C  0.69686660  0.47818991  0.40903133     0.20800
C300        C  0.68183843  0.50071528  0.40737730    -0.02800
C301        C  0.65775749  0.50019142  0.39076098    -0.05800
C302        C  0.64899092  0.47726380  0.37540642     0.21100
C303        C  0.64207657  0.52229212  0.39064346     0.19200
C304        C  0.65096851  0.54492337  0.40629724    -0.17300
C305        C  0.67478315  0.54541886  0.42288861    -0.19500
C306        C  0.69014779  0.52330483  0.42408787     0.20700
C307        C  0.71262832  0.52276290  0.44391154    -0.32500
C308        C  0.72646225  0.49980064  0.44790808     0.01400
C309        C  0.71910905  0.47790873  0.42929255    -0.23900
C310        C  0.62456408  0.47647218  0.36044724    -0.28500
C311        C  0.60855094  0.49826664  0.36059214     0.07100
C312        C  0.61761320  0.52122065  0.37549371    -0.27100
H313        H  0.65818709  0.43759721  0.36402360     0.11800
H314        H  0.69961198  0.43832067  0.39361997     0.13000
H315        H  0.63925846  0.56210017  0.40635085     0.12000
H316        H  0.68149088  0.56342497  0.93535501     0.11300
H317        H  0.71847818  0.53991914  0.95883425     0.16700
H318        H  0.72921195  0.45996616  0.43337302     0.12600
H319        H  0.61798662  0.45871001  0.34883440     0.15400
H320        H  0.60557268  0.53817668  0.37560646     0.15200
C321        C  0.17257368  0.46908462  0.36483792    -0.17700
C322        C  0.19153834  0.46663358  0.38993290    -0.19800
C323        C  0.19117364  0.48233951  0.41922088     0.20800
C324        C  0.17131594  0.50042269  0.42364957    -0.02800
C325        C  0.15224331  0.50301004  0.39816518    -0.05800
C326        C  0.15300281  0.48733931  0.36859396     0.21100
C327        C  0.13261216  0.52141576  0.40209871     0.19200
C328        C  0.13214863  0.53690037  0.43166731    -0.17300
C329        C  0.15111112  0.53438084  0.45692964    -0.19500
C330        C  0.17086975  0.51631585  0.45310314     0.20700
C331        C  0.19070782  0.51447894  0.47745246    -0.32500
C332        C  0.21103387  0.49725415  0.47219997     0.01400
C333        C  0.21085288  0.48091075  0.44350685    -0.23900
C334        C  0.13416843  0.49009765  0.34327174    -0.28500
C335        C  0.11434902  0.50824573  0.34695716     0.07100
C336        C  0.11378012  0.52392950  0.37647194    -0.27100
H337        H  0.17333847  0.45684040  0.34232886     0.11800
H338        H  0.20666829  0.45265062  0.38624011     0.13000
H339        H  0.11719313  0.55109040  0.43516293     0.12000
H340        H  0.15047448  0.54676890  0.47929989     0.11300
H341        H  0.19112817  0.52735472  0.49935447     0.16700
H342        H  0.22667038  0.46773264  0.43947390     0.12600
H343        H  0.13481088  0.47776634  0.32082771     0.15400
H344        H  0.09853085  0.53784599  0.37974367     0.15200
C345        C  0.17364612  0.50771978  0.16114030    -0.17700
C346        C  0.19401347  0.51239167  0.13832392    -0.19800
C347        C  0.19542149  0.49937288  0.10674871     0.20800
C348        C  0.17629279  0.48121818  0.09831017    -0.02800
C349        C  0.15555213  0.47675104  0.12112701    -0.05800
C350        C  0.15417014  0.49013897  0.15263746     0.21100
C351        C  0.13594658  0.45928733  0.11204560     0.19200
C352        C  0.13757323  0.44597702  0.08072916    -0.17300
C353        C  0.15829735  0.45011969  0.05838824    -0.19500
C354        C  0.17763408  0.46783683  0.06680553     0.20700
C355        C  0.19809778  0.47260465  0.04407498    -0.32500
C356        C  0.21684167  0.49125473  0.05170958     0.01400
C357        C  0.21534533  0.50449014  0.08322348    -0.23900
C358        C  0.13299369  0.48626381  0.17459557    -0.28500
C359        C  0.11285589  0.46959657  0.16511256     0.07100
C360        C  0.11474479  0.45589755  0.13398881    -0.27100
H361        H  0.17291689  0.51816814  0.18521472     0.11800
H362        H  0.20859961  0.52631989  0.14529552     0.13000
H363        H  0.12269448  0.43248163  0.07337632     0.12000
H364        H  0.15901640  0.43971394  0.03427758     0.11300
H365        H  0.19936490  0.46189074  0.02026980     0.16700
H366        H  0.22928017  0.51925645  0.08908622     0.12600
H367        H  0.13169378  0.49705379  0.19837215     0.15400
H368        H  0.09942858  0.44294222  0.12645843     0.15200
C369        C  0.35107634  0.45392059  0.11135860    -0.17700
C370        C  0.32756641  0.45275001  0.09415460    -0.19800
C371        C  0.31166642  0.47444496  0.09250627     0.20800
C372        C  0.31894189  0.49719587  0.10969218    -0.02800
C373        C  0.34263846  0.49835795  0.12708523    -0.05800
C374        C  0.35902320  0.47678901  0.12726028     0.21100
C375        C  0.35045458  0.52148685  0.14283680     0.19200
C376        C  0.33414672  0.54290591  0.14225159    -0.17300
C377        C  0.31086770  0.54188870  0.12452702    -0.19500
C378        C  0.30342834  0.51934951  0.10743466     0.20700
C379        C  0.28200830  0.51924330  0.08571141    -0.32500
C380        C  0.27579609  0.49721393  0.06666239     0.01400
C381        C  0.28980303  0.47449767  0.07158651    -0.23900
C382        C  0.38335783  0.47869716  0.14241298    -0.28500
C383        C  0.39158876  0.50194468  0.15727830     0.07100
C384        C  0.37477085  0.52308298  0.15792818    -0.27100
H385        H  0.36335020  0.43714385  0.11143639     0.11800
H386        H  0.32224829  0.43514410  0.08108155     0.13000
H387        H  0.33979540  0.56073357  0.15451259     0.12000
H388        H  0.29947251  0.56005552  0.62189145     0.11300
H389        H  0.27186728  0.53757790  0.58037335     0.16700
H390        H  0.28538713  0.45776717  0.05603505     0.12600
H391        H  0.39602349  0.46220428  0.14209702     0.15400
H392        H  0.38072901  0.54100269  0.16970582     0.15200
C393        C  0.47063970  0.18237062  0.09520429    -0.17700
C394        C  0.46843531  0.15806636  0.11061676    -0.19800
C395        C  0.49033223  0.14496143  0.12210083     0.20800
C396        C  0.51459263  0.15698517  0.11923031    -0.02800
C397        C  0.51681620  0.18153436  0.10380963    -0.05800
C398        C  0.49478422  0.19404792  0.09102685     0.21100
C399        C  0.54126899  0.19286640  0.09941976     0.19200
C400        C  0.56308441  0.18025826  0.11196580    -0.17300
C401        C  0.56085329  0.15608685  0.12749317    -0.19500
C402        C  0.53677501  0.14409416  0.13057233     0.20700
C403        C  0.53464235  0.11920635  0.14414234    -0.32500
C404        C  0.51062338  0.10671178  0.14655387     0.01400
C405        C  0.48848459  0.11989968  0.13576043    -0.23900
C406        C  0.49754258  0.21699302  0.07209379    -0.28500
C407        C  0.52207929  0.22703786  0.06525556     0.07100
C408        C  0.54368561  0.21560798  0.08030755    -0.27100
H409        H  0.45352040  0.19170185  0.08563472     0.11800
H410        H  0.44962882  0.14925507  0.11283110     0.13000
H411        H  0.58197739  0.18875568  0.10886926     0.12000
H412        H  0.57804671  0.14648685  0.13631517     0.11300
H413        H  0.55188887  0.10947970  0.15255947     0.16700
H414        H  0.46986661  0.11065659  0.13782186     0.12600
H415        H  0.48096994  0.22555251  0.05981538     0.15400
H416        H  0.56262712  0.22321729  0.07448858     0.15200
C417        C  0.47858214  0.31531925  0.39830400    -0.17700
C418        C  0.47949136  0.33416094  0.37269476    -0.19800
C419        C  0.49795926  0.35380589  0.37401005     0.20800
C420        C  0.51502613  0.35515861  0.40205468    -0.02800
C421        C  0.51399838  0.33623286  0.42805535    -0.05800
C422        C  0.49604690  0.31593469  0.42565455     0.21100
C423        C  0.53161133  0.33699116  0.45561214     0.19200
C424        C  0.54945039  0.35721832  0.45749345    -0.17300
C425        C  0.55039414  0.37607415  0.43172500    -0.19500
C426        C  0.53356157  0.37496949  0.40361472     0.20700
C427        C  0.53512913  0.39307411  0.37681149    -0.32500
C428        C  0.51850463  0.39145617  0.34839288     0.01400
C429        C  0.49983813  0.37187563  0.34745256    -0.23900
C430        C  0.49673352  0.29590687  0.44964519    -0.28500
C431        C  0.51497540  0.29595402  0.47604335     0.07100
C432        C  0.53186173  0.31682044  0.47972015    -0.27100
H433        H  0.46459992  0.29992768  0.39629604     0.11800
H434        H  0.46610479  0.33305438  0.35146479     0.13000
H435        H  0.56303955  0.35814766  0.47850002     0.12000
H436        H  0.56461848  0.39125942  0.43345588     0.11300
H437        H  0.54931881  0.40833408  0.37804430     0.16700
H438        H  0.48658195  0.37070547  0.32606402     0.12600
H439        H  0.48391684  0.27956387  0.44688945     0.15400
H440        H  0.54613126  0.31650219  0.49996023     0.15200
C441        C  0.51295104  0.32651918  0.16678910    -0.17700
C442        C  0.51901623  0.30621346  0.14465824    -0.19800
C443        C  0.50914579  0.30554103  0.11110761     0.20800
C444        C  0.49243721  0.32517700  0.10008113    -0.02800
C445        C  0.48666245  0.34593807  0.12223131    -0.05800
C446        C  0.49716679  0.34669296  0.15564169     0.21100
C447        C  0.47102259  0.36626189  0.11059754     0.19200
C448        C  0.46055914  0.36518276  0.07734804    -0.17300
C449        C  0.46589711  0.34437952  0.05564781    -0.19500
C450        C  0.48208748  0.32445643  0.06661050     0.20700
C451        C  0.48876275  0.30428498  0.04435076    -0.32500
C452        C  0.50690135  0.28560902  0.05420599     0.01400
C453        C  0.51650724  0.28613333  0.08803297    -0.23900
C454        C  0.49242942  0.36796808  0.17693327    -0.28500
C455        C  0.47774894  0.38888477  0.16511164     0.07100
C456        C  0.46672346  0.38760321  0.13202938    -0.27100
H457        H  0.52111221  0.32673885  0.19240335     0.11800
H458        H  0.53173929  0.29121494  0.15363215     0.13000
H459        H  0.44847118  0.38057753  0.06797577     0.12000
H460        H  0.45783229  0.34417808  0.02996573     0.11300
H461        H  0.48029305  0.30357427  0.01898849     0.16700
H462        H  0.53067020  0.27219114  0.09597459     0.12600
H463        H  0.50107733  0.36866032  0.20225046     0.15400
H464        H  0.45529694  0.40348831  0.12258268     0.15200
C465        C  0.52668631  0.84152810  0.40254520    -0.17700
C466        C  0.52373760  0.81842952  0.42086437    -0.19800
C467        C  0.50015951  0.80525270  0.42086542     0.20800
C468        C  0.47962162  0.81503634  0.40123019    -0.02800
C469        C  0.48257293  0.83838780  0.38288275    -0.05800
C470        C  0.50610164  0.85193446  0.38392483     0.21100
C471        C  0.46165062  0.84862608  0.36455333     0.19200
C472        C  0.43826032  0.83517981  0.36378761    -0.17300
C473        C  0.43527968  0.81221205  0.38212463    -0.19500
C474        C  0.45566616  0.80224912  0.40142052     0.20700
C475        C  0.45195778  0.78079131  0.42277667    -0.32500
C476        C  0.47179443  0.77195104  0.44400857     0.01400
C477        C  0.49616622  0.78353637  0.44194398    -0.23900
C478        C  0.50838816  0.87588329  0.36704712    -0.28500
C479        C  0.48733688  0.88651838  0.34937633     0.07100
C480        C  0.46418491  0.87244233  0.34797120    -0.27100
H481        H  0.54493100  0.85154713  0.40356194     0.11800
H482        H  0.53971953  0.81122133  0.43577264     0.13000
H483        H  0.42205311  0.84275320  0.34965717     0.12000
H484        H  0.41679664  0.80260010  0.38195737     0.11300
H485        H  0.43302587  0.77220654  0.42506138     0.16700
H486        H  0.51124251  0.77713285  0.45908613     0.12600
H487        H  0.52635361  0.88640363  0.36820140     0.15400
H488        H  0.44784201  0.88015232  0.33423891     0.15200
C489        C  0.45331545  0.62052299  0.07881925    -0.17700
C490        C  0.45292938  0.63953445  0.05318088    -0.19800
C491        C  0.46396121  0.66378483  0.05912722     0.20800
C492        C  0.47567704  0.66876857  0.09122102    -0.02800
C493        C  0.47599947  0.64965247  0.11706785    -0.05800
C494        C  0.46469948  0.62543232  0.11089050     0.21100
C495        C  0.48754010  0.65486710  0.14915599     0.19200
C496        C  0.49856343  0.67905120  0.15520998    -0.17300
C497        C  0.49812957  0.69799892  0.12972674    -0.19500
C498        C  0.48672625  0.69303570  0.09777134     0.20700
C499        C  0.48556883  0.71222452  0.07264715    -0.32500
C500        C  0.47332158  0.70777748  0.04107656     0.01400
C501        C  0.46285473  0.68340497  0.03409915    -0.23900
C502        C  0.46515049  0.60656054  0.13683054    -0.28500
C503        C  0.47699170  0.61155349  0.16872692     0.07100
C504        C  0.48801901  0.63581444  0.17464320    -0.27100
H505        H  0.44460899  0.60199271  0.07360197     0.11800
H506        H  0.44383849  0.63532791  0.02878720     0.13000
H507        H  0.50746145  0.68334072  0.17970671     0.12000
H508        H  0.50659435  0.71662045  0.13509305     0.11300
H509        H  0.49345427  0.73111393  0.07808101     0.16700
H510        H  0.45296514  0.68013547  0.00999301     0.12600
H511        H  0.45677913  0.58782063  0.13189560     0.15400
H512        H  0.49713650  0.63986329  0.19908757     0.15200
C513        C  0.53385104  0.63697445  0.43850369    -0.17700
C514        C  0.52633706  0.65708037  0.46027160    -0.19800
C515        C  0.50893330  0.67580368  0.44886959     0.20800
C516        C  0.49943267  0.67448198  0.41493651    -0.02800
C517        C  0.50728253  0.65439455  0.39281514    -0.05800
C518        C  0.52428224  0.63532615  0.40480596     0.21100
C519        C  0.49758179  0.65305958  0.35899751     0.19200
C520        C  0.48041393  0.67191387  0.34744539    -0.17300
C521        C  0.47241692  0.69158608  0.36944972    -0.19500
C522        C  0.48164475  0.69291050  0.40329078     0.20700
C523        C  0.47293059  0.71201697  0.42585473    -0.32500
C524        C  0.48208571  0.71349783  0.45983583     0.01400
C525        C  0.50053916  0.69555123  0.47090368    -0.23900
C526        C  0.53075423  0.61457096  0.38327276    -0.28500
C527        C  0.52050292  0.61266976  0.34979937     0.07100
C528        C  0.50447373  0.63245072  0.33766453    -0.27100
H529        H  0.54695100  0.62254293  0.44817133     0.11800
H530        H  0.53382955  0.65774749  0.48623646     0.13000
H531        H  0.47278684  0.67117784  0.32155310     0.12000
H532        H  0.45881600  0.70565766  0.36007519     0.11300
H533        H  0.45836283  0.72532332  0.41722712     0.16700
H534        H  0.50820487  0.69679537  0.49670486     0.12600
H535        H  0.54315238  0.59952643  0.39296913     0.15400
H536        H  0.49635326  0.63125894  0.31206285     0.15200
C537        C  0.16636177  0.03416622  0.06476870    -0.17700
C538        C  0.14280557  0.03373577  0.08218198    -0.19800
C539        C  0.13713848  0.01405592  0.10582357     0.20800
C540        C  0.15559312  0.99485494  0.11241558    -0.02800
C541        C  0.17938974  0.99529889  0.09485683    -0.05800
C542        C  0.18465965  0.01490436  0.07068132     0.21100
C543        C  0.19729752  0.97535003  0.10012074     0.19200
C544        C  0.19177806  0.95587067  0.12409465    -0.17300
C545        C  0.16837503  0.95563898  0.14185922    -0.19500
C546        C  0.14996616  0.97474306  0.13570317     0.20700
C547        C  0.12587310  0.97379694  0.15193971    -0.32500
C548        C  0.10728064  0.99276311  0.14538603     0.01400
C549        C  0.11319981  0.01298772  0.12252133    -0.23900
C550        C  0.20733336  0.01392298  0.05115494    -0.28500
C551        C  0.22431341  0.99309838  0.05446805     0.07100
C552        C  0.21948761  0.97421040  0.07956079    -0.27100
H553        H  0.17003424  0.04924549  0.04610289     0.11800
H554        H  0.12885163  0.04860410  0.07675785     0.13000
H555        H  0.20576625  0.94227179  0.63412646     0.12000
H556        H  0.16442672  0.94015830  0.15983692     0.11300
H557        H  0.12161336  0.95828085  0.16976426     0.16700
H558        H  0.09901054  0.02767487  0.11726263     0.12600
H559        H  0.21053639  0.02795062  0.03088486     0.15400
H560        H  0.23151277  0.95697034  0.58473319     0.15200
C561        C  0.37097674  0.94771841  0.41889535    -0.17700
C562        C  0.35273390  0.94907813  0.44539581    -0.19800
C563        C  0.33343213  0.96783894  0.44467719     0.20800
C564        C  0.33280020  0.98567840  0.41718831    -0.02800
C565        C  0.35109726  0.98420290  0.39037611    -0.05800
C566        C  0.37020806  0.96505422  0.39114286     0.21100
C567        C  0.35001407  0.00167465  0.36257663     0.19200
C568        C  0.33092693  0.02063518  0.36197823    -0.17300
C569        C  0.31273621  0.02201412  0.38840181    -0.19500
C570        C  0.31337599  0.00449218  0.41588133     0.20700
C571        C  0.29418912  0.00466506  0.44115007    -0.32500
C572        C  0.29403713  0.98626763  0.46761743     0.01400
C573        C  0.31403271  0.96834299  0.46994673    -0.23900
C574        C  0.38822715  0.96363652  0.36421692    -0.28500
C575        C  0.38737863  0.98113024  0.33648350     0.07100
C576        C  0.36804761  0.99997424  0.33586483    -0.27100
H577        H  0.38556184  0.93293924  0.41995090     0.11800
H578        H  0.35351193  0.93521234  0.46622455     0.13000
H579        H  0.32991133  0.03425426  0.34088173     0.12000
H580        H  0.29791805  0.03655239  0.38707545     0.11300
H581        H  0.27843571  0.01817217  0.43918863     0.16700
H582        H  0.31351081  0.95382709  0.49001880     0.12600
H583        H  0.40309647  0.94912425  0.36511895     0.15400
H584        H  0.36723892  0.01367926  0.31483473     0.15200
C585        C  0.32931379  0.98434877  0.15322931    -0.17700
C586        C  0.30886008  0.97910051  0.13099936    -0.19800
C587        C  0.30666207  0.99218594  0.09950293     0.20800
C588        C  0.32513614  0.01096680  0.09052434    -0.02800
C589        C  0.34597261  0.01605702  0.11279984    -0.05800
C590        C  0.34809304  0.00262355  0.14424179     0.21100
C591        C  0.36496199  0.03415717  0.10322209     0.19200
C592        C  0.36260263  0.04741916  0.07188248    -0.17300
C593        C  0.34183359  0.04258375  0.05001066    -0.19500
C594        C  0.32312152  0.02423828  0.05894930     0.20700
C595        C  0.30277601  0.01854622  0.03652047    -0.32500
C596        C  0.28473308  0.99923729  0.04470796     0.01400
C597        C  0.28674642  0.98634222  0.07643976    -0.23900
C598        C  0.36928631  0.00716587  0.16570323    -0.28500
C599        C  0.38879320  0.02458560  0.15588977     0.07100
C600        C  0.38626031  0.03821963  0.12471627    -0.27100
H601        H  0.33065213  0.97382224  0.17724882     0.11800
H602        H  0.29484444  0.96463463  0.13834118     0.13000
H603        H  0.37697657  0.06140444  0.06410437     0.12000
H604        H  0.34061394  0.05291945  0.02585027     0.11300
H605        H  0.30121069  0.02881411  0.01236739     0.16700
H606        H  0.27349705  0.97096596  0.08255543     0.12600
H607        H  0.37107014  0.99634029  0.18944538     0.15400
H608        H  0.40111867  0.05166136  0.11682957     0.15200
C609        C  0.84367910  0.96379841  0.39419426    -0.17700
C610        C  0.81946600  0.96468930  0.40987447    -0.19800
C611        C  0.80522627  0.98756256  0.40989767     0.20800
C612        C  0.81500764  0.00945722  0.39270023    -0.02800
C613        C  0.83948887  0.00859923  0.37710236    -0.05800
C614        C  0.85409596  0.98579095  0.37837821     0.21100
C615        C  0.84977062  0.03089874  0.36154562     0.19200
C616        C  0.83518869  0.05352549  0.36047901    -0.17300
C617        C  0.81104015  0.05443622  0.37614391    -0.19500
C618        C  0.80107381  0.03270911  0.39299813     0.20700
C619        C  0.77851426  0.03443166  0.41252553    -0.32500
C620        C  0.76989073  0.01333425  0.43190445     0.01400
C621        C  0.78245536  0.98958394  0.42911084    -0.23900
C622        C  0.87907558  0.98558231  0.36461450    -0.28500
C623        C  0.88970935  0.00798303  0.34990393     0.07100
C624        C  0.87470808  0.03043273  0.34809174    -0.27100
H625        H  0.85454516  0.94608831  0.39523320     0.11800
H626        H  0.81222902  0.94770117  0.42292371     0.13000
H627        H  0.84276923  0.07074577  0.34836216     0.12000
H628        H  0.80053008  0.07238269  0.37605613     0.11300
H629        H  0.76905252  0.05285275  0.41542712     0.16700
H630        H  0.77606622  0.97352948  0.44485601     0.12600
H631        H  0.89034395  0.96812348  0.36585118     0.15400
H632        H  0.88248563  0.04773622  0.33638956     0.15200
C633        C  0.64148878  0.05311171  0.04831633    -0.17700
C634        C  0.62362763  0.05205196  0.07525937    -0.19800
C635        C  0.62467551  0.03223476  0.09982370     0.20800
C636        C  0.64345026  0.01290676  0.09673278    -0.02800
C637        C  0.66135387  0.01386581  0.06941991    -0.05800
C638        C  0.66062095  0.03431040  0.04541044     0.21100
C639        C  0.68059951  0.99492217  0.06694558     0.19200
C640        C  0.68128558  0.97479432  0.09101617    -0.17300
C641        C  0.66347112  0.97379013  0.11797944    -0.19500
C642        C  0.64472046  0.99293568  0.12135404     0.20700
C643        C  0.62735878  0.99254176  0.14904583    -0.32500
C644        C  0.60863885  0.01181649  0.15244992     0.01400
C645        C  0.60740627  0.03153874  0.12756089    -0.23900
C646        C  0.67978615  0.03623600  0.02003790    -0.28500
C647        C  0.69956086  0.01804371  0.01864751     0.07100
C648        C  0.69958112  0.99716373  0.04152240    -0.27100
H649        H  0.64061661  0.06889583  0.03010444     0.11800
H650        H  0.60922501  0.06696772  0.07719063     0.13000
H651        H  0.69591838  0.96008569  0.08937234     0.12000
H652        H  0.66460951  0.95823955  0.13651198     0.11300
H653        H  0.62829486  0.97708231  0.16775545     0.16700
H654        H  0.59294534  0.04639773  0.12968248     0.12600
H655        H  0.68023743  0.05262411  0.00273065     0.15400
H656        H  0.71525203  0.98349764  0.04068587     0.15200
C657        C  0.66522745  0.01390553  0.33782843    -0.17700
C658        C  0.68547559  0.02037494  0.35974916    -0.19800
C659        C  0.68881634  0.00726594  0.39100891     0.20800
C660        C  0.67169689  0.98728044  0.40016500    -0.02800
C661        C  0.65112061  0.98085854  0.37811609    -0.05800
C662        C  0.64788690  0.99428318  0.34684847     0.21100
C663        C  0.63350720  0.96141153  0.38769755     0.19200
C664        C  0.63699915  0.94818750  0.41888427    -0.17300
C665        C  0.65751387  0.95440062  0.44059486    -0.19500
C666        C  0.67482894  0.97407004  0.43163531     0.20700
C667        C  0.69486621  0.98114103  0.45387351    -0.32500
C668        C  0.71153985  0.00155450  0.44534544     0.01400
C669        C  0.70857696  0.01423263  0.41362745    -0.23900
C670        C  0.62702566  0.98833293  0.32552385    -0.28500
C671        C  0.60888757  0.96950374  0.33526144     0.07100
C672        C  0.61242502  0.95596166  0.36632844    -0.27100
H673        H  0.66295551  0.02446771  0.31396687     0.11800
H674        H  0.69842121  0.03579338  0.35236451     0.13000
H675        H  0.62371380  0.93317493  0.42665296     0.12000
H676        H  0.65962276  0.94405484  0.46465140     0.11300
H677        H  0.69728909  0.97104048  0.47804598     0.16700
H678        H  0.72110797  0.03020338  0.40717024     0.12600
H679        H  0.62435376  0.99917016  0.30194119     0.15400
H680        H  0.59854416  0.94150565  0.37416422     0.15200
C681        C  0.95966636  0.12046276  0.43092331    -0.17700
C682        C  0.96064997  0.13903043  0.45696421    -0.19800
C683        C  0.97556992  0.16134844  0.45273014     0.20800
C684        C  0.99032269  0.16451159  0.42239565    -0.02800
C685        C  0.98926174  0.14585710  0.39614001    -0.05800
C686        C  0.97355780  0.12391507  0.40019943     0.21100
C687        C  0.00344131  0.14951568  0.36548161     0.19200
C688        C  0.01903751  0.17136281  0.36164994    -0.17300
C689        C  0.01997517  0.18989904  0.38753496    -0.19500
C690        C  0.00538114  0.18682972  0.41764945     0.20700
C691        C  0.00457758  0.20632480  0.44225571    -0.32500
C692        C  0.98883749  0.20399706  0.47142660     0.01400
C693        C  0.97503863  0.18116113  0.47732872    -0.23900
C694        C  0.97189442  0.10595717  0.37336019    -0.28500
C695        C  0.98582906  0.10961952  0.34257089     0.07100
C696        C  0.00165049  0.13141598  0.33900422    -0.27100
H697        H  0.94768857  0.10359740  0.43457915     0.11800
H698        H  0.94930703  0.13619675  0.48009182     0.13000
H699        H  0.03016893  0.17433538  0.33836900     0.12000
H700        H  0.03169445  0.20692445  0.38367377     0.11300
H701        H  0.01517305  0.22403524  0.43788762     0.16700
H702        H  0.96272973  0.17955843  0.49978902     0.12600
H703        H  0.95994404  0.08901635  0.37661416     0.15400
H704        H  0.01265412  0.13433289  0.31558376     0.15200
C705        C  0.04676414  0.13668484  0.07600639    -0.17700
C706        C  0.04121260  0.15734483  0.05415667    -0.19800
C707        C  0.02251016  0.17545221  0.06336497     0.20800
C708        C  0.00955948  0.17296733  0.09515785    -0.02800
C709        C  0.01539136  0.15229633  0.11740446    -0.05800
C710        C  0.03386676  0.13389742  0.10757335     0.21100
C711        C  0.00233571  0.14974545  0.14910149     0.19200
C712        C  0.98367579  0.16790010  0.15835412    -0.17300
C713        C  0.97770404  0.18821793  0.13614550    -0.19500
C714        C  0.99043425  0.19084277  0.10443713     0.20700
C715        C  0.98396655  0.21064802  0.08150036    -0.32500
C716        C  0.99651512  0.21302950  0.04955466     0.01400
C717        C  0.01618189  0.19569021  0.04104772    -0.23900
C718        C  0.03864956  0.11270972  0.12905380    -0.28500
C719        C  0.02537250  0.10977542  0.16042388     0.07100
C720        C  0.00762845  0.12870524  0.17055164    -0.27100
H721        H  0.06101037  0.12275017  0.06806760     0.11800
H722        H  0.05128698  0.15895039  0.02980469     0.13000
H723        H  0.97343288  0.16617755  0.18256838     0.12000
H724        H  0.96298014  0.20178280  0.14366641     0.11300
H725        H  0.96855201  0.22371158  0.08796223     0.16700
H726        H  0.02626774  0.19773495  0.01677944     0.12600
H727        H  0.05233227  0.09823414  0.12101723     0.15400
H728        H  0.99707219  0.12650739  0.19447643     0.15200
C729        C  0.94779126  0.31076126  0.12171902    -0.17700
C730        C  0.94896293  0.33439406  0.13862600    -0.19800
C731        C  0.97150446  0.34920894  0.13760127     0.20800
C732        C  0.99349238  0.33966075  0.12078234    -0.02800
C733        C  0.99236286  0.31568936  0.10386397    -0.05800
C734        C  0.96916110  0.30155465  0.10361222     0.21100
C735        C  0.01388395  0.30667211  0.08539624     0.19200
C736        C  0.03671538  0.32109928  0.08548491    -0.17300
C737        C  0.03788706  0.34479907  0.10251340    -0.19500
C738        C  0.01621622  0.35453107  0.11961795     0.20700
C739        C  0.01660191  0.37909533  0.13479200    -0.32500
C740        C  0.99442630  0.38903120  0.15072913     0.01400
C741        C  0.97212985  0.37369498  0.15237350    -0.23900
C742        C  0.96708423  0.27960077  0.08302396    -0.28500
C743        C  0.98777926  0.27174152  0.06256939     0.07100
C744        C  0.01150137  0.28450590  0.06504657    -0.27100
H745        H  0.92989572  0.30008468  0.12185933     0.11800
H746        H  0.93199246  0.34142139  0.15171048     0.13000
H747        H  0.05343309  0.31443206  0.07150063     0.12000
H748        H  0.05554936  0.35583457  0.10152008     0.11300
H749        H  0.03396709  0.39060425  0.13365956     0.16700
H750        H  0.95502429  0.38087038  0.16501380     0.12600
H751        H  0.94866457  0.27004573  0.08033462     0.15400
H752        H  0.02723640  0.27871597  0.04847890     0.15200
C753        C  0.97370525  0.80849800  0.11986187    -0.17700
C754        C  0.97660105  0.82715668  0.14530238    -0.19800
C755        C  0.99365078  0.84776232  0.14039994     0.20800
C756        C  0.00766520  0.84987164  0.10938425    -0.02800
C757        C  0.00471848  0.83101215  0.08361928    -0.05800
C758        C  0.98783675  0.81014922  0.08916885     0.21100
C759        C  0.01914790  0.83261207  0.05280876     0.19200
C760        C  0.03589052  0.85351916  0.04780743    -0.17300
C761        C  0.03864792  0.87237491  0.07329085    -0.19500
C762        C  0.02480719  0.87060796  0.10430969     0.20700
C763        C  0.02765110  0.88921830  0.13026412    -0.32500
C764        C  0.01351970  0.88729576  0.16116839     0.01400
C765        C  0.99675380  0.86633101  0.16600358    -0.23900
C766        C  0.98619584  0.79064724  0.06465116    -0.28500
C767        C  0.00142890  0.79134038  0.03482947     0.07100
C768        C  0.01736011  0.81269188  0.02839486    -0.27100
H769        H  0.96069096  0.79254316  0.12441845     0.11800
H770        H  0.96563665  0.82536716  0.16893700     0.13000
H771        H  0.04710258  0.85512032  0.02436435     0.12000
H772        H  0.05180730  0.88822513  0.06886404     0.11300
H773        H  0.04045319  0.90540974  0.12611169     0.16700
H774        H  0.98568192  0.86461747  0.18957480     0.12600
H775        H  0.97402439  0.77406758  0.06958473     0.15400
H776        H  0.02938125  0.81300976  0.00557173     0.15200
C777        C  0.01035646  0.80640078  0.36500276    -0.17700
C778        C  0.00560585  0.82690351  0.34249196    -0.19800
C779        C  0.98881040  0.84674727  0.35196623     0.20800
C780        C  0.97616959  0.84557113  0.38410064    -0.02800
C781        C  0.98079984  0.82473291  0.40671573    -0.05800
C782        C  0.99826127  0.80524608  0.39732033     0.21100
C783        C  0.96841324  0.82372274  0.43902323     0.19200
C784        C  0.95124662  0.84331767  0.44824490    -0.17300
C785        C  0.94686682  0.86407428  0.42601967    -0.19500
C786        C  0.95943752  0.86553618  0.39404982     0.20700
C787        C  0.95617656  0.88695469  0.37235851    -0.32500
C788        C  0.96936123  0.88869717  0.34070003     0.01400
C789        C  0.98512022  0.86812010  0.33036117    -0.23900
C790        C  0.00380599  0.78533320  0.42071268    -0.28500
C791        C  0.99196109  0.78445035  0.45332119     0.07100
C792        C  0.97379473  0.80344614  0.46182457    -0.27100
H793        H  0.02374395  0.79157830  0.35727607     0.11800
H794        H  0.01544982  0.82747538  0.31789435     0.13000
H795        H  0.94153794  0.84282730  0.47294569     0.12000
H796        H  0.93389010  0.87917183  0.43405056     0.11300
H797        H  0.94388684  0.90257879  0.38057402     0.16700
H798        H  0.99544360  0.86921018  0.30613236     0.12600
H799        H  0.01801499  0.77105078  0.41400456     0.15400
H800        H  0.96402336  0.80260476  0.48643867     0.15200
C801        C  0.04856298  0.68335724  0.39558084    -0.17700
C802        C  0.05006523  0.65877533  0.38119740    -0.19800
C803        C  0.02814921  0.64310834  0.37908942     0.20800
C804        C  0.00435470  0.65250417  0.39099665    -0.02800
C805        C  0.00281230  0.67741057  0.40543514    -0.05800
C806        C  0.02512018  0.69273313  0.40812501     0.21100
C807        C  0.97926735  0.68644504  0.41873322     0.19200
C808        C  0.95730896  0.67081652  0.41638407    -0.17300
C809        C  0.95877544  0.64626580  0.40169835    -0.19500
C810        C  0.98226230  0.63679955  0.38927744     0.20700
C811        C  0.98408717  0.61189701  0.37536459    -0.32500
C812        C  0.00777453  0.60237759  0.36323814     0.01400
C813        C  0.02970725  0.61819125  0.36541674    -0.23900
C814        C  0.02404148  0.71625873  0.42568165    -0.28500
C815        C  0.00116636  0.72440906  0.44137644     0.07100
C816        C  0.97856908  0.71002887  0.43642500    -0.27100
H817        H  0.06589172  0.69482052  0.39761207     0.11800
H818        H  0.06847654  0.65187684  0.37212712     0.13000
H819        H  0.93976706  0.67509249  0.93124788     0.12000
H820        H  0.94159322  0.63451115  0.40055455     0.11300
H821        H  0.96700967  0.60000266  0.37383013     0.16700
H822        H  0.04804755  0.61122575  0.35614815     0.12600
H823        H  0.04163552  0.72683603  0.43052015     0.15400
H824        H  0.96178264  0.71379077  0.95335621     0.15200
N825        N  0.99994892  0.76384585  0.98043133    -0.03300
C826        C  0.00428455  0.73826879  0.97522810    -0.00700
C827        C  0.00982475  0.72748442  0.50370823    -0.23600
C828        C  0.00940636  0.74584705  0.52872360    -0.23800
C829        C  0.00294058  0.76867575  0.51281850    -0.00800
H830        H  0.01395310  0.70727028  0.50731503     0.12900
H831        H  0.01335863  0.74291374  0.55578226     0.13000
N832        N  0.98830958  0.23092999  0.52583765    -0.03300
C833        C  0.98193549  0.25577973  0.53202086    -0.00700
C834        C  0.97362962  0.26898847  0.00176078    -0.23600
C835        C  0.97437326  0.25095414  0.97617149    -0.23800
C836        C  0.98333493  0.22855022  0.99098203    -0.00800
H837        H  0.96846815  0.28902250  0.99890051     0.12900
H838        H  0.96951309  0.25397709  0.94940475     0.13000
N839        N  0.72860469  0.01618087  0.96647121    -0.03300
C840        C  0.75282530  0.02473932  0.96035388    -0.00700
C841        C  0.76613251  0.02820617  0.49230405    -0.23600
C842        C  0.74825345  0.02646722  0.51809356    -0.23800
C843        C  0.72655431  0.01576225  0.50364258    -0.00800
H844        H  0.78573098  0.03488085  0.49484834     0.12900
H845        H  0.75085660  0.03205885  0.54467515     0.13000
N846        N  0.26528250  0.98840478  0.52058708    -0.03300
C847        C  0.23981873  0.98325789  0.52534101    -0.00700
C848        C  0.22903965  0.97896902  0.99393259    -0.23600
C849        C  0.24794069  0.97880998  0.96945362    -0.23800
C850        C  0.27019198  0.98638055  0.98569871    -0.00800
H851        H  0.20888622  0.97499634  0.98973699     0.12900
H852        H  0.24564908  0.97425434  0.94246535     0.13000
N853        N  0.47459125  0.73343450  0.98489414    -0.03300
C854        C  0.46740193  0.75794499  0.97722076    -0.00700
C855        C  0.45303122  0.76887841  0.50265951    -0.23600
C856        C  0.45266484  0.75131894  0.52889534    -0.23800
C857        C  0.46413768  0.72924493  0.51651747    -0.00800
H858        H  0.44644928  0.78857480  0.50396336     0.12900
H859        H  0.44545389  0.75451743  0.55468936     0.13000
N860        N  0.51419289  0.26749166  0.52920467    -0.03300
C861        C  0.52189697  0.24279869  0.53453235    -0.00700
C862        C  0.53726951  0.23363891  0.00525051    -0.23600
C863        C  0.53542939  0.25227763  0.98052686    -0.23800
C864        C  0.52332547  0.27286677  0.99576874    -0.00800
H865        H  0.54526823  0.21462002  0.00190453     0.12900
H866        H  0.54220169  0.25102933  0.95421546     0.13000
N867        N  0.23678027  0.49719062  0.52773586    -0.03300
C868        C  0.26220503  0.50043635  0.53421894    -0.00700
C869        C  0.27603055  0.50432605  0.00363699    -0.23600
C870        C  0.25867698  0.50326226  0.97738223    -0.23800
C871        C  0.23495101  0.49880717  0.99227933    -0.00800
H872        H  0.29657518  0.50688565  0.00108790     0.12900
H873        H  0.26289631  0.50543778  0.95023126     0.13000
N874        N  0.76664126  0.49904146  0.98602009    -0.03300
C875        C  0.74096097  0.49662828  0.98057337    -0.00700
C876        C  0.72832150  0.49161217  0.51076927    -0.23600
C877        C  0.74660371  0.49170036  0.53596683    -0.23800
C878        C  0.76981236  0.49619981  0.51976949    -0.00800
H879        H  0.70786415  0.48912795  0.51447468     0.12900
H880        H  0.74335967  0.48888417  0.56325002     0.13000
O881        O  0.48323669  0.51406253  0.69975614    -0.88200
C882        C  0.47183292  0.54640384  0.79428037     0.87800
Mg883      Mg  0.47374482  0.47514386  0.68752366     1.58100
O884        O  0.53647137  0.53396991  0.77575086    -0.87900
O885        O  0.51696509  0.53969043  0.69942323    -0.75300
C886        C  0.51975321  0.41162310  0.82098790     0.92900
O887        O  0.43958773  0.50130484  0.75579078    -0.75100
O888        O  0.50473451  0.40871345  0.79558086    -0.82600
Mg889      Mg  0.45415532  0.53613911  0.72510819     1.58000
C890        C  0.58289443  0.49756190  0.84490084     0.92800
O891        O  0.46510660  0.57149476  0.69283002    -0.80800
H892        H  0.56716606  0.53833374  0.74522212    -0.06200
C893        C  0.49770353  0.48022914  0.83081829     0.87700
O894        O  0.51592660  0.46358120  0.69561447    -0.75300
O895        O  0.48084395  0.54524397  0.76483724    -0.88100
O896        O  0.56911778  0.51779171  0.84268355    -0.80900
C897        C  0.52450675  0.59001256  0.82885340     0.92900
C898        C  0.47893255  0.59165481  0.69495685     0.92800
Mg899      Mg  0.54611909  0.46682099  0.79200619     1.58000
O900        O  0.53377608  0.43159646  0.82409393    -0.80800
O901        O  0.56151709  0.50170388  0.76181049    -0.75100
O902        O  0.51568845  0.58948835  0.79814729    -0.80900
O903        O  0.42411006  0.52634417  0.68576233    -0.82600
O904        O  0.48495120  0.41357730  0.71733704    -0.81000
C905        C  0.55562356  0.52541476  0.76073415     0.87200
O906        O  0.51995279  0.45807003  0.75126412    -0.88100
O907        O  0.51708675  0.48926899  0.81662170    -0.88200
O908        O  0.48358141  0.46336435  0.81641717    -0.75300
Mg909      Mg  0.51588262  0.56339137  0.74949901     1.58000
O910        O  0.53470094  0.57021907  0.84256114    -0.82600
H911        H  0.50774159  0.51580246  0.66008909    -0.06400
O912        O  0.46445805  0.46927852  0.74054680    -0.87900
H913        H  0.43433090  0.46454191  0.77196244    -0.06200
H914        H  0.54886372  0.45171721  0.71839367    -0.06400
C915        C  0.44552368  0.47762240  0.75623300     0.87200
C916        C  0.50254545  0.52298954  0.68524703     0.87800
C917        C  0.52905199  0.45729766  0.72183105     0.87800
H918        H  0.49226716  0.48731733  0.85593593    -0.06300
O919        O  0.48491313  0.54014070  0.82052141    -0.75400
Mg920      Mg  0.48481906  0.43983586  0.76599377     1.58000
H921        H  0.45210226  0.55226620  0.79770599    -0.06400
C922        C  0.41704044  0.50470250  0.67387736     0.92800
O923        O  0.46592130  0.43340647  0.67351620    -0.82600
C924        C  0.47575853  0.41332841  0.68684665     0.92900
O925        O  0.49542176  0.59448967  0.71882220    -0.82600
Mg926      Mg  0.52690892  0.52824438  0.82894286     1.58200
O927        O  0.43152928  0.48499365  0.67525743    -0.80900
O928        O  0.57542891  0.47616542  0.83262522    -0.82600
O929        O  0.51192587  0.01223584  0.68542749    -0.88200
C930        C  0.54469375  0.02007227  0.78015492     0.87800
Mg931      Mg  0.47396425  0.02523011  0.67451789     1.58100
O932        O  0.52716726  0.95654363  0.76221831    -0.87900
O933        O  0.53362310  0.97587887  0.68557735    -0.75300
C934        C  0.40752370  0.98187722  0.80857759     0.92900
O935        O  0.50361946  0.05679776  0.74179439    -0.75100
O936        O  0.40646051  0.99811676  0.78414287    -0.82600
Mg937      Mg  0.53660805  0.03896306  0.71090909     1.58000
C938        C  0.48787932  0.91214824  0.83196533     0.92800
O939        O  0.57040785  0.02471339  0.67855030    -0.80800
H940        H  0.52944407  0.92549349  0.73210962    -0.06200
C941        C  0.47798030  0.99868201  0.81847853     0.87700
O942        O  0.45912649  0.98378137  0.68287152    -0.75300
O943        O  0.54275981  0.01133794  0.75067042    -0.88100
O944        O  0.50927581  0.92423911  0.82984605    -0.80900
C945        C  0.58434916  0.96556442  0.81406528     0.92900
C946        C  0.58891509  0.00887518  0.68038817     0.92800
Mg947      Mg  0.46025462  0.95163484  0.77899033     1.58000
O948        O  0.42602123  0.96603126  0.81114696    -0.80800
O949        O  0.49336876  0.93361722  0.74852721    -0.75100
O950        O  0.58359316  0.97409343  0.78324707    -0.80900
O951        O  0.52983352  0.06971874  0.67132330    -0.82600
O952        O  0.41294369  0.01698906  0.70596275    -0.81000
C953        C  0.51737481  0.93789867  0.74745293     0.87200
O954        O  0.45402987  0.97911533  0.73865949    -0.88100
O955        O  0.48496097  0.97853562  0.80427159    -0.88200
O956        O  0.46281876  0.01456092  0.80407369    -0.75300
Mg957      Mg  0.55765657  0.97493538  0.73532925     1.58000
O958        O  0.56466618  0.95545188  0.82839089    -0.82600
H959        H  0.51080145  0.98738120  0.64624001    -0.06400
O960        O  0.46984466  0.03391119  0.72791469    -0.87900
H961        H  0.46757919  0.06465950  0.75858392    -0.06200
H962        H  0.44528378  0.95121882  0.70526989    -0.06400
C963        C  0.47963261  0.05242735  0.74297278     0.87200
C964        C  0.51862217  0.99196254  0.67123916     0.87800
C965        C  0.45231411  0.97059513  0.70901388     0.87800
H966        H  0.48562181  0.00330494  0.84356389    -0.06300
O967        O  0.53784044  0.00718149  0.80649470    -0.75400
Mg968      Mg  0.43908961  0.01553821  0.75402405     1.58000
H969        H  0.55186653  0.03943149  0.78356290    -0.06400
C970        C  0.50905796  0.07946069  0.66030378     0.92800
O971        O  0.43259149  0.03619336  0.66187259    -0.82600
C972        C  0.41253600  0.02635798  0.67555346     0.92900
O973        O  0.59022822  0.99227466  0.70439298    -0.82600
Mg974      Mg  0.52306394  0.96591449  0.81561672     1.58200
O975        O  0.48770527  0.06729223  0.66232964    -0.80900
O976        O  0.46735902  0.92129779  0.81922325    -0.82600
O977        O  0.01485238  0.98508136  0.69236885    -0.88200
C978        C  0.02511461  0.95262539  0.78725189     0.87800
Mg979      Mg  0.02635589  0.02357123  0.68049086     1.58100
O980        O  0.96154688  0.96969300  0.76973345    -0.87900
O981        O  0.97955046  0.96179737  0.69312456    -0.75300
C982        C  0.98721789  0.08944444  0.81688751     0.92900
O983        O  0.06072800  0.99447507  0.74624280    -0.75100
O984        O  0.00309872  0.09101933  0.79204968    -0.82600
Mg985      Mg  0.04292150  0.96090036  0.71648842     1.58000
C986        C  0.91694853  0.00858453  0.83815827     0.92800
O987        O  0.02857741  0.92598247  0.68508386    -0.80800
H988        H  0.93065535  0.96770084  0.73940722    -0.06200
C989        C  0.00393341  0.01921671  0.82527749     0.87700
O990        O  0.98544379  0.03792317  0.69097616    -0.75300
O991        O  0.01621398  0.95396003  0.75778024    -0.88100
O992        O  0.92923614  0.98740610  0.83581496    -0.80900
C993        C  0.96940003  0.91256388  0.82305733     0.92900
C994        C  0.01312916  0.90707742  0.68871522     0.92800
Mg995      Mg  0.95648123  0.03696902  0.78727564     1.58000
O996        O  0.97139672  0.07081573  0.81945255    -0.80800
O997        O  0.93857275  0.00365192  0.75672439    -0.75100
O998        O  0.97867253  0.91255623  0.79255094    -0.80900
O999        O  0.07288741  0.96911449  0.67529613    -0.82600
O1000       O  0.02025496  0.08497149  0.71307244    -0.81000
C1001       C  0.94299278  0.97964382  0.75503467     0.87200
O1002       O  0.98301057  0.04380514  0.74672109    -0.88100
O1003       O  0.98368260  0.01226239  0.81138331    -0.88200
O1004       O  0.01969502  0.03452628  0.81063290    -0.75300
Mg1005     Mg  0.97964982  0.93858325  0.74375613     1.58000
O1006       O  0.96007300  0.93290511  0.83631816    -0.82600
H1007       H  0.99011873  0.98471446  0.65312168    -0.06400
O1008       O  0.03712915  0.02795018  0.73338941    -0.87900
H1009       H  0.06862952  0.03070198  0.76240887    -0.06200
H1010       H  0.95409991  0.05246311  0.71507012    -0.06400
C1011       C  0.05613843  0.01843010  0.74746730     0.87200
C1012       C  0.99494533  0.97738391  0.67833759     0.87800
C1013       C  0.97347296  0.04535101  0.71767818     0.87800
H1014       H  0.00875981  0.01139398  0.85022773    -0.06300
O1015       O  0.01228093  0.95958674  0.81356155    -0.75400
Mg1016     Mg  0.01970297  0.05859317  0.76074754     1.58000
H1017       H  0.04452130  0.94581113  0.79067986    -0.06400
C1018       C  0.08041052  0.99031805  0.66213399     0.92800
O1019       O  0.03655762  0.06501748  0.66730533    -0.82600
C1020       C  0.02823290  0.08524885  0.68199214     0.92900
O1021       O  0.99726161  0.90597585  0.71366335    -0.82600
Mg1022     Mg  0.97099511  0.97415273  0.82285333     1.58200
O1023       O  0.06711249  0.01081682  0.66446097    -0.80900
O1024       O  0.92653411  0.02968533  0.82760616    -0.82600
O1025       O  0.98873317  0.48021160  0.69595064    -0.88200
C1026       C  0.95571511  0.46782320  0.78960223     0.87800
Mg1027     Mg  0.02715981  0.46839708  0.68498450     1.58100
O1028       O  0.97271115  0.53204592  0.77498786    -0.87900
O1029       O  0.96601070  0.51577056  0.69766032    -0.75300
C1030       C  0.09316486  0.50829940  0.82116732     0.92900
O1031       O  0.99734901  0.43388717  0.74898256    -0.75100
O1032       O  0.09405021  0.49272395  0.79599556    -0.82600
Mg1033     Mg  0.96404544  0.45203829  0.71873977     1.58000
C1034       C  0.00935234  0.57579170  0.84691674     0.92800
O1035       O  0.92965966  0.46709023  0.68663271    -0.80800
H1036       H  0.97026966  0.56390839  0.74628381    -0.06200
C1037       C  0.02267656  0.48964486  0.83008393     0.87700
O1038       O  0.04128419  0.50973628  0.69591285    -0.75300
O1039       O  0.95682243  0.47765333  0.76057800    -0.88100
O1040       O  0.98897067  0.56237816  0.84328538    -0.80900
C1041       C  0.91514022  0.52278681  0.82648472     0.92900
C1042       C  0.91099588  0.48265598  0.69057725     0.92800
Mg1043     Mg  0.03963048  0.53857450  0.79372179     1.58000
O1044       O  0.07443211  0.52379605  0.82520615    -0.80800
O1045       O  0.00615993  0.55641217  0.76369594    -0.75100
O1046       O  0.91503170  0.51432560  0.79562955    -0.80900
O1047       O  0.97228052  0.42320189  0.67716984    -0.82600
O1048       O  0.08854385  0.47594573  0.71686358    -0.81000
C1049       C  0.98232974  0.55138430  0.76143091     0.87200
O1050       O  0.04690444  0.51263624  0.75181308    -0.88100
O1051       O  0.01532730  0.50991374  0.81655304    -0.88200
O1052       O  0.03817498  0.47445256  0.81505151    -0.75300
Mg1053     Mg  0.94195754  0.51454457  0.74763755     1.58000
O1054       O  0.93563127  0.53099105  0.84050468    -0.82600
H1055       H  0.98938076  0.50613124  0.65783997    -0.06400
O1056       O  0.03104913  0.45795591  0.73781065    -0.87900
H1057       H  0.03311915  0.42615718  0.76671487    -0.06200
H1058       H  0.05481603  0.54174634  0.71969560    -0.06400
C1059       C  0.02121716  0.43874628  0.75143813     0.87200
C1060       C  0.98158238  0.50063321  0.68262288     0.87800
C1061       C  0.04816999  0.52213725  0.72258228     0.87800
H1062       H  0.01505449  0.48429294  0.85501947    -0.06300
O1063       O  0.96291785  0.47984948  0.81638465    -0.75400
Mg1064     Mg  0.06187114  0.47570039  0.76492293     1.58000
H1065       H  0.94906491  0.44818948  0.79215478    -0.06400
C1066       C  0.99359172  0.41417041  0.66674021     0.92800
O1067       O  0.06850876  0.45816575  0.67231296    -0.82600
C1068       C  0.08874965  0.46714678  0.68619636     0.92900
O1069       O  0.90986524  0.49779663  0.71619830    -0.82600
Mg1070     Mg  0.97683916  0.52107976  0.82765974     1.58200
O1071       O  0.01458825  0.42667021  0.67026679    -0.80900
O1072       O  0.03098268  0.56796766  0.83566806    -0.82600
C1073       C  0.83536983  0.52702534  0.64379006    -0.17700
C1074       C  0.81648807  0.52993531  0.61870265    -0.19800
C1075       C  0.81559693  0.51325895  0.59043500     0.20800
C1076       C  0.83425781  0.49383046  0.58684715    -0.02800
C1077       C  0.85327284  0.49080634  0.61233112    -0.05800
C1078       C  0.85360586  0.50735192  0.64103461     0.21100
C1079       C  0.87163675  0.47102511  0.60939944     0.19200
C1080       C  0.87097008  0.45467939  0.58066610    -0.17300
C1081       C  0.85202179  0.45760555  0.55542300    -0.19500
C1082       C  0.83342084  0.47696383  0.55840615     0.20700
C1083       C  0.81335093  0.47910874  0.53440533    -0.32500
C1084       C  0.79407824  0.49761035  0.53909399     0.01400
C1085       C  0.79568370  0.51498200  0.56654786    -0.23900
C1086       C  0.87209469  0.50397670  0.66662787    -0.28500
C1087       C  0.89057340  0.48437829  0.66410250     0.07100
C1088       C  0.89024640  0.46795954  0.63527743    -0.27100
H1089       H  0.83551026  0.53997430  0.66560099     0.11800
H1090       H  0.80231356  0.54497371  0.62170734     0.13000
H1091       H  0.88495051  0.43944101  0.57789226     0.12000
H1092       H  0.85169455  0.44447772  0.53381244     0.11300
H1093       H  0.81181435  0.46548692  0.51342264     0.16700
H1094       H  0.78064580  0.52911305  0.57013945     0.12600
H1095       H  0.87222785  0.51695941  0.68841690     0.15400
H1096       H  0.90450392  0.45293353  0.63287113     0.15200
C1097       C  0.82947769  0.48552408  0.85209367    -0.17700
C1098       C  0.80888629  0.48176528  0.87486267    -0.19800
C1099       C  0.80771962  0.49525287  0.90609985     0.20800
C1100       C  0.82738343  0.51292156  0.91425444    -0.02800
C1101       C  0.84828901  0.51654129  0.89142322    -0.05800
C1102       C  0.84939215  0.50270223  0.86023973     0.21100
C1103       C  0.86831309  0.53362476  0.90015381     0.19200
C1104       C  0.86700188  0.54736010  0.93116555    -0.17300
C1105       C  0.84618528  0.54398058  0.95357614    -0.19500
C1106       C  0.82639888  0.52667066  0.94549208     0.20700
C1107       C  0.80586110  0.52261418  0.96833813    -0.32500
C1108       C  0.78655170  0.50447702  0.96097556     0.01400
C1109       C  0.78753142  0.49104039  0.92959744    -0.23900
C1110       C  0.87069032  0.50577392  0.83823629    -0.28500
C1111       C  0.89117856  0.52211799  0.84734593     0.07100
C1112       C  0.88958951  0.53624085  0.87816528    -0.27100
H1113       H  0.82999608  0.47471549  0.82829206     0.11800
H1114       H  0.79394385  0.46816098  0.86813352     0.13000
H1115       H  0.88220273  0.56057449  0.93824028     0.12000
H1116       H  0.84573104  0.55467159  0.97747602     0.11300
H1117       H  0.80498034  0.53345977  0.99207229     0.16700
H1118       H  0.77303005  0.47676276  0.92393502     0.12600
H1119       H  0.87177357  0.49465491  0.81470981     0.15400
H1120       H  0.90518037  0.54895613  0.88540962     0.15200
C1121       C  0.66421774  0.45540903  0.87749063    -0.17700
C1122       C  0.68798471  0.45582123  0.89409396    -0.19800
C1123       C  0.69679071  0.47835642  0.91000375     0.20800
C1124       C  0.68191796  0.50097219  0.90808461    -0.02800
C1125       C  0.65776226  0.50046786  0.89167131    -0.05800
C1126       C  0.64878420  0.47747877  0.87670699     0.21100
C1127       C  0.64224314  0.52268262  0.89130876     0.19200
C1128       C  0.65133556  0.54537343  0.90659132    -0.17300
C1129       C  0.67523737  0.54586002  0.92294287    -0.19500
C1130       C  0.69047369  0.52366588  0.92431347     0.20700
C1131       C  0.71306422  0.52317292  0.94389492    -0.32500
C1132       C  0.72671204  0.50014078  0.94826204     0.01400
C1133       C  0.71911187  0.47811207  0.93010566    -0.23900
C1134       C  0.62435880  0.47678632  0.86173059    -0.28500
C1135       C  0.60856648  0.49875023  0.86145301     0.07100
C1136       C  0.61777562  0.52170360  0.87617467    -0.27100
H1137       H  0.65763744  0.43763385  0.86594111     0.11800
H1138       H  0.69916839  0.43831470  0.89528514     0.13000
H1139       H  0.63974033  0.56262845  0.90647630     0.12000
H1140       H  0.68085904  0.56291425  0.43562895     0.11300
H1141       H  0.71786066  0.53939756  0.45918381     0.16700
H1142       H  0.72906025  0.46012202  0.93449584     0.12600
H1143       H  0.61763955  0.45899265  0.85035103     0.15400
H1144       H  0.60588764  0.53876760  0.87602778     0.15200
C1145       C  0.17448150  0.47097102  0.86200274    -0.17700
C1146       C  0.19356372  0.46855014  0.88693816    -0.19800
C1147       C  0.19229824  0.48292597  0.91738868     0.20800
C1148       C  0.17142749  0.49959226  0.92314901    -0.02800
C1149       C  0.15220188  0.50212090  0.89786715    -0.05800
C1150       C  0.15386683  0.48783626  0.86711759     0.21100
C1151       C  0.13151603  0.51911953  0.90317903     0.19200
C1152       C  0.13012928  0.53319752  0.93393792    -0.17300
C1153       C  0.14926104  0.53076333  0.95898289    -0.19500
C1154       C  0.17010232  0.51417495  0.95375309     0.20700
C1155       C  0.19011935  0.51259847  0.97787014    -0.32500
C1156       C  0.21140235  0.49681139  0.97138831     0.01400
C1157       C  0.21203867  0.48160867  0.94157831    -0.23900
C1158       C  0.13489034  0.49057868  0.84198385    -0.28500
C1159       C  0.11406529  0.50736216  0.84700139     0.07100
C1160       C  0.11258452  0.52166626  0.87769766    -0.27100
H1161       H  0.17595902  0.45980000  0.83857289     0.11800
H1162       H  0.20949022  0.45566746  0.88221383     0.13000
H1163       H  0.11433456  0.54626079  0.93851843     0.12000
H1164       H  0.14790714  0.54209429  0.98228397     0.11300
H1165       H  0.18983432  0.52460080  0.00064615     0.16700
H1166       H  0.22851620  0.46945366  0.93662265     0.12600
H1167       H  0.13625563  0.47934447  0.81858194     0.15400
H1168       H  0.09653420  0.53448009  0.88201128     0.15200
C1169       C  0.17317350  0.50728453  0.66156401    -0.17700
C1170       C  0.19353063  0.51213862  0.63879680    -0.19800
C1171       C  0.19514161  0.49907783  0.60727377     0.20800
C1172       C  0.17624909  0.48065493  0.59887349    -0.02800
C1173       C  0.15554387  0.47595778  0.62167995    -0.05800
C1174       C  0.15392487  0.48944377  0.65308961     0.21100
C1175       C  0.13618356  0.45819574  0.61266243     0.19200
C1176       C  0.13806774  0.44477233  0.58145615    -0.17300
C1177       C  0.15873189  0.44918218  0.55909517    -0.19500
C1178       C  0.17777175  0.46725335  0.56740170     0.20700
C1179       C  0.19811266  0.47235373  0.54459527    -0.32500
C1180       C  0.21664641  0.49121398  0.55224158     0.01400
C1181       C  0.21503364  0.50440679  0.58376825    -0.23900
C1182       C  0.13271866  0.48543145  0.67495393    -0.28500
C1183       C  0.11277206  0.46852298  0.66548662     0.07100
C1184       C  0.11493830  0.45466405  0.63451966    -0.27100
H1185       H  0.17226456  0.51780245  0.68557269     0.11800
H1186       H  0.20793063  0.52626684  0.64574589     0.13000
H1187       H  0.12340589  0.43102118  0.57416816     0.12000
H1188       H  0.15962210  0.43871591  0.53504162     0.11300
H1189       H  0.19949550  0.46168037  0.52076732     0.16700
H1190       H  0.22886344  0.51928390  0.58964793     0.12600
H1191       H  0.13122380  0.49632752  0.69862297     0.15400
H1192       H  0.09978633  0.44150715  0.62701907     0.15200
C1193       C  0.35006533  0.45409080  0.61410614    -0.17700
C1194       C  0.32663976  0.45291845  0.59668684    -0.19800
C1195       C  0.31106213  0.47479760  0.59410015     0.20800
C1196       C  0.31855724  0.49776381  0.61060284    -0.02800
C1197       C  0.34219441  0.49894174  0.62816249    -0.05800
C1198       C  0.35827321  0.47715799  0.62924829     0.21100
C1199       C  0.35027294  0.52226621  0.64314957     0.19200
C1200       C  0.33425671  0.54388542  0.64168305    -0.17300
C1201       C  0.31101620  0.54282551  0.62386012    -0.19500
C1202       C  0.30333325  0.52006232  0.60749972     0.20700
C1203       C  0.28195383  0.51980654  0.58569376    -0.32500
C1204       C  0.27557696  0.49753791  0.56724558     0.01400
C1205       C  0.28932086  0.47475886  0.57293006    -0.23900
C1206       C  0.38258774  0.47903687  0.64448961    -0.28500
C1207       C  0.39111483  0.50246751  0.65853633     0.07100
C1208       C  0.37456894  0.52383435  0.65833897    -0.27100
H1209       H  0.36209190  0.43714561  0.61490547     0.11800
H1210       H  0.32114203  0.43513676  0.58418222     0.13000
H1211       H  0.34010410  0.56187546  0.65334110     0.12000
H1212       H  0.29909307  0.55899598  0.12322350     0.11300
H1213       H  0.27177252  0.53701141  0.08092476     0.16700
H1214       H  0.28477311  0.45781924  0.55785969     0.12600
H1215       H  0.39502053  0.46236801  0.64484941     0.15400
H1216       H  0.38074562  0.54191257  0.66946678     0.15200
C1217       C  0.46833721  0.18187929  0.59786696    -0.17700
C1218       C  0.46668396  0.15745578  0.61304605    -0.19800
C1219       C  0.48896511  0.14434062  0.62309564     0.20800
C1220       C  0.51307811  0.15647405  0.61912188    -0.02800
C1221       C  0.51474280  0.18117036  0.60401168    -0.05800
C1222       C  0.49230114  0.19367994  0.59255691     0.21100
C1223       C  0.53900179  0.19264396  0.59851322     0.19200
C1224       C  0.56122856  0.17999599  0.60961814    -0.17300
C1225       C  0.55955991  0.15566014  0.62480371    -0.19500
C1226       C  0.53563836  0.14354515  0.62900063     0.20700
C1227       C  0.53400559  0.11850643  0.64222080    -0.32500
C1228       C  0.51011723  0.10592536  0.64567901     0.01400
C1229       C  0.48762396  0.11915262  0.63636872    -0.23900
C1230       C  0.49442641  0.21671749  0.57368004    -0.28500
C1231       C  0.51871430  0.22691204  0.56569613     0.07100
C1232       C  0.54076841  0.21554454  0.57962481    -0.27100
H1233       H  0.45091010  0.19120583  0.58934061     0.11800
H1234       H  0.44798899  0.14854978  0.61614640     0.13000
H1235       H  0.57998369  0.18858955  0.60561903     0.12000
H1236       H  0.57704676  0.14603645  0.63247843     0.11300
H1237       H  0.55150691  0.10872888  0.64952358     0.16700
H1238       H  0.46910096  0.10984341  0.63929963     0.12600
H1239       H  0.47749150  0.22519299  0.56221069     0.15400
H1240       H  0.55950409  0.22322108  0.57283629     0.15200
C1241       C  0.48058400  0.31605657  0.90031852    -0.17700
C1242       C  0.48104880  0.33479247  0.87453103    -0.19800
C1243       C  0.49968556  0.35431011  0.87492757     0.20800
C1244       C  0.51742909  0.35560528  0.90221367    -0.02800
C1245       C  0.51685278  0.33679722  0.92838871    -0.05800
C1246       C  0.49867561  0.31664247  0.92693532     0.21100
C1247       C  0.53512041  0.33753076  0.95516432     0.19200
C1248       C  0.55319927  0.35757748  0.95610572    -0.17300
C1249       C  0.55369298  0.37631208  0.93018219    -0.19500
C1250       C  0.53615686  0.37526609  0.90286283     0.20700
C1251       C  0.53717100  0.39333182  0.87599718    -0.32500
C1252       C  0.51979346  0.39185865  0.84840144     0.01400
C1253       C  0.50102393  0.37235536  0.84825682    -0.23900
C1254       C  0.49976242  0.29671726  0.95108469    -0.28500
C1255       C  0.51861236  0.29677695  0.97670984     0.07100
C1256       C  0.53576642  0.31749431  0.97942144    -0.27100
H1257       H  0.46643076  0.30077686  0.89902347     0.11800
H1258       H  0.46715255  0.33372039  0.85389642     0.13000
H1259       H  0.56730016  0.35846409  0.97649918     0.12000
H1260       H  0.56808781  0.39137629  0.93118735     0.11300
H1261       H  0.55149431  0.40849211  0.87657707     0.16700
H1262       H  0.48723270  0.37128387  0.82747727     0.12600
H1263       H  0.48679681  0.28043587  0.94899876     0.15400
H1264       H  0.55053554  0.31713866  0.99900612     0.15200
C1265       C  0.51220654  0.32670100  0.66684118    -0.17700
C1266       C  0.51790858  0.30634916  0.64457492    -0.19800
C1267       C  0.50787668  0.30585570  0.61109623     0.20800
C1268       C  0.49142808  0.32578113  0.60027446    -0.02800
C1269       C  0.48602736  0.34657856  0.62254810    -0.05800
C1270       C  0.49663309  0.34711636  0.65590715     0.21100
C1271       C  0.47058084  0.36711314  0.61111073     0.19200
C1272       C  0.46001306  0.36627589  0.57791762    -0.17300
C1273       C  0.46496169  0.34544709  0.55611986    -0.19500
C1274       C  0.48086795  0.32525216  0.56692446     0.20700
C1275       C  0.48694153  0.30492187  0.54464618    -0.32500
C1276       C  0.50475502  0.28586594  0.55426469     0.01400
C1277       C  0.51470988  0.28627952  0.58792665    -0.23900
C1278       C  0.49215077  0.36838463  0.67736668    -0.28500
C1279       C  0.47759317  0.38947023  0.66574863     0.07100
C1280       C  0.46651650  0.38840047  0.63269405    -0.27100
H1281       H  0.52044776  0.32673971  0.69240678     0.11800
H1282       H  0.53043460  0.29113635  0.65341815     0.13000
H1283       H  0.44809423  0.38185283  0.56868909     0.12000
H1284       H  0.45677029  0.34540034  0.53051184     0.11300
H1285       H  0.47815400  0.30431419  0.51947688     0.16700
H1286       H  0.52862099  0.27203018  0.59570877     0.12600
H1287       H  0.50084288  0.36891093  0.70266092     0.15400
H1288       H  0.45519546  0.40440747  0.62338417     0.15200
C1289       C  0.52733650  0.84044274  0.89822344    -0.17700
C1290       C  0.52478440  0.81743828  0.91681935    -0.19800
C1291       C  0.50087971  0.80501764  0.91938204     0.20800
C1292       C  0.47953143  0.81544991  0.90201243    -0.02800
C1293       C  0.48209805  0.83869212  0.88335901    -0.05800
C1294       C  0.50602688  0.85148709  0.88188087     0.21100
C1295       C  0.46047798  0.84958510  0.86728042     0.19200
C1296       C  0.43670001  0.83688644  0.86907537    -0.17300
C1297       C  0.43410698  0.81403033  0.88776191    -0.19500
C1298       C  0.45527267  0.80343129  0.90481628     0.20700
C1299       C  0.45220433  0.78210074  0.92654415    -0.32500
C1300       C  0.47298100  0.77266123  0.94558425     0.01400
C1301       C  0.49750250  0.78343585  0.94085810    -0.23900
C1302       C  0.50804955  0.87534738  0.86481308    -0.28500
C1303       C  0.48638449  0.88662380  0.84935049     0.07100
C1304       C  0.46277997  0.87330436  0.85038543    -0.27100
H1305       H  0.54588759  0.84989384  0.89725370     0.11800
H1306       H  0.54137920  0.80972245  0.92996390     0.13000
H1307       H  0.41994476  0.84496480  0.85670464     0.12000
H1308       H  0.41537782  0.80500450  0.88962784     0.11300
H1309       H  0.43321565  0.77408913  0.93087359     0.16700
H1310       H  0.51335609  0.77654095  0.95631400     0.12600
H1311       H  0.52636597  0.88527211  0.86402271     0.15400
H1312       H  0.44593810  0.88155312  0.83841029     0.15200
C1313       C  0.45111817  0.61986744  0.57892174    -0.17700
C1314       C  0.45006348  0.63867077  0.55303814    -0.19800
C1315       C  0.46074683  0.66315777  0.55838665     0.20800
C1316       C  0.47274460  0.66860057  0.59016523    -0.02800
C1317       C  0.47378909  0.64966941  0.61624058    -0.05800
C1318       C  0.46286264  0.62520606  0.61064042     0.21100
C1319       C  0.48570118  0.65530205  0.64796630     0.19200
C1320       C  0.49630751  0.67974998  0.65345503    -0.17300
C1321       C  0.49512651  0.69852144  0.62777394    -0.19500
C1322       C  0.48341284  0.69311729  0.59614834     0.20700
C1323       C  0.48166602  0.71207168  0.57075687    -0.32500
C1324       C  0.46929369  0.70711732  0.53941000     0.01400
C1325       C  0.45910716  0.68252731  0.53303659    -0.23900
C1326       C  0.46401924  0.60652991  0.63679739    -0.28500
C1327       C  0.47621865  0.61193067  0.66834843     0.07100
C1328       C  0.48693323  0.63641146  0.67366357    -0.27100
H1329       H  0.44267467  0.60114745  0.57415521     0.11800
H1330       H  0.44075039  0.63410609  0.52891241     0.13000
H1331       H  0.50546524  0.68438155  0.67766517     0.12000
H1332       H  0.50330350  0.71733807  0.63270775     0.11300
H1333       H  0.48931370  0.73112889  0.57573657     0.16700
H1334       H  0.44912961  0.67885842  0.50909941     0.12600
H1335       H  0.45587552  0.58762774  0.63230203     0.15400
H1336       H  0.49631447  0.64077925  0.69782703     0.15200
C1337       C  0.53646954  0.63827797  0.93791170    -0.17700
C1338       C  0.52932011  0.65836758  0.95992703    -0.19800
C1339       C  0.51159369  0.67699704  0.94916410     0.20800
C1340       C  0.50144182  0.67563767  0.91557871    -0.02800
C1341       C  0.50893678  0.65557448  0.89318335    -0.05800
C1342       C  0.52621559  0.63655927  0.90458599     0.21100
C1343       C  0.49857939  0.65418455  0.85972128     0.19200
C1344       C  0.48115179  0.67300189  0.84876760    -0.17300
C1345       C  0.47349670  0.69263912  0.87105840    -0.19500
C1346       C  0.48333360  0.69397747  0.90458853     0.20700
C1347       C  0.47490008  0.71298621  0.92751037    -0.32500
C1348       C  0.48468005  0.71447674  0.96118195     0.01400
C1349       C  0.50350109  0.69666749  0.97152317    -0.23900
C1350       C  0.53226532  0.61576864  0.88288869    -0.28500
C1351       C  0.52133261  0.61377724  0.84981171     0.07100
C1352       C  0.50506887  0.63354089  0.83819012    -0.27100
H1353       H  0.54980936  0.62389886  0.94711694     0.11800
H1354       H  0.53732647  0.65907420  0.98561031     0.13000
H1355       H  0.47303330  0.67224281  0.82314951     0.12000
H1356       H  0.45966246  0.70665661  0.86216556     0.11300
H1357       H  0.46007365  0.72619322  0.91941440     0.16700
H1358       H  0.51166206  0.69793753  0.99704702     0.12600
H1359       H  0.54487913  0.60076023  0.89217501     0.15400
H1360       H  0.49643535  0.63228414  0.81290034     0.15200
C1361       C  0.16326608  0.02960358  0.55923011    -0.17700
C1362       C  0.13959776  0.02926288  0.57639952    -0.19800
C1363       C  0.13462569  0.01102350  0.60228411     0.20800
C1364       C  0.15384678  0.99314639  0.61122847    -0.02800
C1365       C  0.17774043  0.99348956  0.59389387    -0.05800
C1366       C  0.18237169  0.01167466  0.56760850     0.21100
C1367       C  0.19644580  0.97476238  0.60162274     0.19200
C1368       C  0.19158793  0.95670767  0.62775022    -0.17300
C1369       C  0.16810403  0.95663093  0.64530549    -0.19500
C1370       C  0.14894273  0.97442686  0.63677245     0.20700
C1371       C  0.12485089  0.97354585  0.65297238    -0.32500
C1372       C  0.10557085  0.99126478  0.64424908     0.01400
C1373       C  0.11069054  0.01010262  0.61904877    -0.23900
C1374       C  0.20530718  0.01051716  0.54862731    -0.28500
C1375       C  0.22317434  0.99074259  0.55447004     0.07100
C1376       C  0.21882187  0.97324572  0.58146646    -0.27100
H1377       H  0.16642810  0.04354932  0.53889725     0.11800
H1378       H  0.12505148  0.04307929  0.56911501     0.13000
H1379       H  0.20533730  0.94046834  0.12854811     0.12000
H1380       H  0.16470624  0.94225627  0.66504085     0.11300
H1381       H  0.12116193  0.95914584  0.67261196     0.16700
H1382       H  0.09591741  0.02379499  0.61213197     0.12600
H1383       H  0.20810935  0.02338395  0.52692655     0.15400
H1384       H  0.23164089  0.95737138  0.08088564     0.15200
C1385       C  0.36950655  0.94845776  0.91689313    -0.17700
C1386       C  0.35132255  0.95020141  0.94339564    -0.19800
C1387       C  0.33295965  0.96988750  0.94326242     0.20800
C1388       C  0.33324405  0.98828736  0.91643050    -0.02800
C1389       C  0.35147096  0.98643316  0.88962549    -0.05800
C1390       C  0.36959480  0.96633094  0.88974844     0.21100
C1391       C  0.35125523  0.00445578  0.86242539     0.19200
C1392       C  0.33317550  0.02438475  0.86248222    -0.17300
C1393       C  0.31503217  0.02613933  0.88890551    -0.19500
C1394       C  0.31474160  0.00803455  0.91571297     0.20700
C1395       C  0.29547017  0.00855973  0.94082612    -0.32500
C1396       C  0.29438225  0.98963055  0.96655657     0.01400
C1397       C  0.31353417  0.97079352  0.96841842    -0.23900
C1398       C  0.38746610  0.96447131  0.86274881    -0.28500
C1399       C  0.38739148  0.98242640  0.83556062     0.07100
C1400       C  0.36910297  0.00228272  0.83560455    -0.27100
H1401       H  0.38333886  0.93295295  0.91743604     0.11800
H1402       H  0.35137578  0.93590584  0.96373063     0.13000
H1403       H  0.33286977  0.03844326  0.84186055     0.12000
H1404       H  0.30094433  0.04140919  0.88806610     0.11300
H1405       H  0.28035051  0.02280344  0.93927357     0.16700
H1406       H  0.31225984  0.95591472  0.98795573     0.12600
H1407       H  0.40156986  0.94919633  0.86310717     0.15400
H1408       H  0.36897980  0.01638987  0.81502041     0.15200
C1409       C  0.32831221  0.98513611  0.65476463    -0.17700
C1410       C  0.30777782  0.97951845  0.63284202    -0.19800
C1411       C  0.30571082  0.99173011  0.60070837     0.20800
C1412       C  0.32435620  0.01007404  0.59080763    -0.02800
C1413       C  0.34531702  0.01547973  0.61274370    -0.05800
C1414       C  0.34733276  0.00286907  0.64479841     0.21100
C1415       C  0.36456446  0.03299772  0.60219215     0.19200
C1416       C  0.36228974  0.04544791  0.57024748    -0.17300
C1417       C  0.34136974  0.04034159  0.54873091    -0.19500
C1418       C  0.32243348  0.02249764  0.55861440     0.20700
C1419       C  0.30201124  0.01638389  0.53648370    -0.32500
C1420       C  0.28388516  0.99734463  0.54551051     0.01400
C1421       C  0.28582720  0.98533899  0.57787142    -0.23900
C1422       C  0.36868613  0.00760382  0.66587726    -0.28500
C1423       C  0.38848366  0.02436280  0.65508956     0.07100
C1424       C  0.38604144  0.03724082  0.62332607    -0.27100
H1425       H  0.32956032  0.97525960  0.67928112     0.11800
H1426       H  0.29360857  0.96541340  0.64090946     0.13000
H1427       H  0.37685411  0.05898076  0.56171251     0.12000
H1428       H  0.34023713  0.05002053  0.52408142     0.11300
H1429       H  0.30053780  0.02600676  0.51185626     0.16700
H1430       H  0.27263586  0.97006974  0.58464699     0.12600
H1431       H  0.37036341  0.99737808  0.69010471     0.15400
H1432       H  0.40111195  0.05017630  0.61468856     0.15200
C1433       C  0.84448732  0.96748638  0.90115524    -0.17700
C1434       C  0.82009296  0.96911395  0.91622605    -0.19800
C1435       C  0.80556542  0.99169755  0.91322121     0.20800
C1436       C  0.81531961  0.01251073  0.89374192    -0.02800
C1437       C  0.83998756  0.01091978  0.87873509    -0.05800
C1438       C  0.85482426  0.98844427  0.88290830     0.21100
C1439       C  0.85017431  0.03220759  0.86073094     0.19200
C1440       C  0.83534502  0.05449548  0.85671787    -0.17300
C1441       C  0.81101369  0.05614395  0.87177988    -0.19500
C1442       C  0.80109219  0.03549670  0.89097457     0.20700
C1443       C  0.77817392  0.03814215  0.90959689    -0.32500
C1444       C  0.76939231  0.01818697  0.93095757     0.01400
C1445       C  0.78241424  0.99458814  0.93142090    -0.23900
C1446       C  0.87991726  0.98756356  0.86948438    -0.28500
C1447       C  0.89045551  0.00901749  0.85233750     0.07100
C1448       C  0.87523697  0.03111798  0.84773427    -0.27100
H1449       H  0.85552536  0.95004289  0.90448318     0.11800
H1450       H  0.81289449  0.95295360  0.93107593     0.13000
H1451       H  0.84284695  0.07092565  0.84269205     0.12000
H1452       H  0.80028749  0.07386601  0.86929982     0.11300
H1453       H  0.76835671  0.05650116  0.90994444     0.16700
H1454       H  0.77590838  0.97946648  0.94866355     0.12600
H1455       H  0.89135983  0.97038396  0.87290751     0.15400
H1456       H  0.88291749  0.04765108  0.83407563     0.15200
C1457       C  0.63949801  0.03922893  0.54130878    -0.17700
C1458       C  0.62090723  0.03937790  0.56739677    -0.19800
C1459       C  0.62388414  0.02401266  0.59687952     0.20800
C1460       C  0.64547360  0.00788351  0.59977377    -0.02800
C1461       C  0.66419143  0.00771167  0.57349206    -0.05800
C1462       C  0.66136208  0.02371061  0.54428169     0.21100
C1463       C  0.68617894  0.99218908  0.57704621     0.19200
C1464       C  0.68890298  0.97639297  0.60609180    -0.17300
C1465       C  0.67024540  0.97639917  0.63196929    -0.19500
C1466       C  0.64865763  0.99230225  0.62925527     0.20700
C1467       C  0.63032692  0.99301481  0.65566185    -0.32500
C1468       C  0.60885193  0.00920227  0.65317627     0.01400
C1469       C  0.60575278  0.02461151  0.62361178    -0.23900
C1470       C  0.68101811  0.02474402  0.51947448    -0.28500
C1471       C  0.70342266  0.01028837  0.52408283     0.07100
C1472       C  0.70562821  0.99361669  0.55229397    -0.27100
H1473       H  0.63699831  0.05159825  0.51909622     0.11800
H1474       H  0.60435097  0.05176652  0.56471603     0.13000
H1475       H  0.70568495  0.96434785  0.60906715     0.12000
H1476       H  0.67289459  0.96424809  0.65436167     0.11300
H1477       H  0.63281792  0.98092952  0.67816892     0.16700
H1478       H  0.58910557  0.03692750  0.62120858     0.12600
H1479       H  0.67964683  0.03787529  0.49783969     0.15400
H1480       H  0.72313482  0.98268808  0.55574797     0.15200
C1481       C  0.66337085  0.01536516  0.83492847    -0.17700
C1482       C  0.68364969  0.02261273  0.85635175    -0.19800
C1483       C  0.68774935  0.00980721  0.88766675     0.20800
C1484       C  0.67141157  0.98928822  0.89732101    -0.02800
C1485       C  0.65079854  0.98208259  0.87578162    -0.05800
C1486       C  0.64676217  0.99526325  0.84452100     0.21100
C1487       C  0.63388135  0.96216330  0.88593270     0.19200
C1488       C  0.63820888  0.94917568  0.91709909    -0.17300
C1489       C  0.65875882  0.95617789  0.93831813    -0.19500
C1490       C  0.67527352  0.97640306  0.92887393     0.20700
C1491       C  0.69510006  0.98446149  0.95082859    -0.32500
C1492       C  0.71084270  0.00548483  0.94191379     0.01400
C1493       C  0.70737708  0.01768867  0.90996820    -0.23900
C1494       C  0.62578684  0.98863968  0.82381572    -0.28500
C1495       C  0.60826075  0.96941346  0.83418422     0.07100
C1496       C  0.61260687  0.95606603  0.86519389    -0.27100
H1497       H  0.66045995  0.02573646  0.81104334     0.11800
H1498       H  0.69597142  0.03843310  0.84858967     0.13000
H1499       H  0.62550421  0.93378807  0.92528351     0.12000
H1500       H  0.66146468  0.94605805  0.96243672     0.11300
H1501       H  0.69797564  0.97475834  0.97518061     0.16700
H1502       H  0.71925959  0.03409486  0.90323624     0.12600
H1503       H  0.62250099  0.99931829  0.80024456     0.15400
H1504       H  0.59920832  0.94129524  0.87347359     0.15200
C1505       C  0.96250876  0.12005406  0.93287667    -0.17700
C1506       C  0.96295435  0.13902716  0.95839598    -0.19800
C1507       C  0.97683953  0.16189625  0.95326019     0.20800
C1508       C  0.99122212  0.16519534  0.92263077    -0.02800
C1509       C  0.99073176  0.14611531  0.89692503    -0.05800
C1510       C  0.97592351  0.12365154  0.90181046     0.21100
C1511       C  0.00448595  0.14988489  0.86593847     0.19200
C1512       C  0.01919832  0.17225632  0.86130644    -0.17300
C1513       C  0.01956488  0.19121818  0.88665770    -0.19500
C1514       C  0.00528699  0.18804248  0.91702255     0.20700
C1515       C  0.00384514  0.20786480  0.94107553    -0.32500
C1516       C  0.98846181  0.20531877  0.97055107     0.01400
C1517       C  0.97564962  0.18204649  0.97728445    -0.23900
C1518       C  0.97453035  0.10538310  0.87535961    -0.28500
C1519       C  0.98785211  0.10924328  0.84414725     0.07100
C1520       C  0.00301791  0.13142998  0.83986709    -0.27100
H1521       H  0.95125796  0.10277384  0.93716706     0.11800
H1522       H  0.95195562  0.13607380  0.98179404     0.13000
H1523       H  0.03001082  0.17532178  0.83777865     0.12000
H1524       H  0.03055396  0.20864271  0.88216968     0.11300
H1525       H  0.01377219  0.22587919  0.93614808     0.16700
H1526       H  0.96367799  0.18024416  0.00004437     0.12600
H1527       H  0.96316456  0.08810561  0.87917414     0.15400
H1528       H  0.01358017  0.13446725  0.81611083     0.15200
C1529       C  0.04788563  0.13637017  0.57762134    -0.17700
C1530       C  0.04221174  0.15691682  0.55563906    -0.19800
C1531       C  0.02341546  0.17495518  0.56474631     0.20800
C1532       C  0.01068245  0.17266726  0.59672347    -0.02800
C1533       C  0.01664901  0.15212342  0.61910822    -0.05800
C1534       C  0.03502165  0.13363856  0.60921978     0.21100
C1535       C  0.00369937  0.14968356  0.65090057     0.19200
C1536       C  0.98517688  0.16795121  0.66024436    -0.17300
C1537       C  0.97906563  0.18813825  0.63789660    -0.19500
C1538       C  0.99152926  0.19051895  0.60596592     0.20700
C1539       C  0.98470917  0.21000641  0.58274218    -0.32500
C1540       C  0.99695084  0.21211537  0.55054298     0.01400
C1541       C  0.01672472  0.19487798  0.54211478    -0.23900
C1542       C  0.03960407  0.11233412  0.63056847    -0.28500
C1543       C  0.02623362  0.10938534  0.66185626     0.07100
C1544       C  0.00882634  0.12854421  0.67224309    -0.27100
H1545       H  0.06210752  0.12240982  0.56968698     0.11800
H1546       H  0.05218223  0.15841959  0.53119866     0.13000
H1547       H  0.97505755  0.16634600  0.68456629     0.12000
H1548       H  0.96437063  0.20173061  0.64542605     0.11300
H1549       H  0.96924381  0.22301201  0.58920014     0.16700
H1550       H  0.02663147  0.19675974  0.51769322     0.12600
H1551       H  0.05310544  0.09772194  0.62242331     0.15400
H1552       H  0.99827051  0.12636982  0.69617356     0.15200
C1553       C  0.94574432  0.31107924  0.61961250    -0.17700
C1554       C  0.94699455  0.33476376  0.63640001    -0.19800
C1555       C  0.96999116  0.34887399  0.63683655     0.20800
C1556       C  0.99229334  0.33852209  0.62171217    -0.02800
C1557       C  0.99108012  0.31448967  0.60494071    -0.05800
C1558       C  0.96748759  0.30111082  0.60309858     0.21100
C1559       C  0.01300916  0.30467433  0.58813894     0.19200
C1560       C  0.03625481  0.31834529  0.58982862    -0.17300
C1561       C  0.03748938  0.34211243  0.60668051    -0.19500
C1562       C  0.01548095  0.35266508  0.62203132     0.20700
C1563       C  0.01603406  0.37733943  0.63688150    -0.32500
C1564       C  0.99360085  0.38809803  0.65110357     0.01400
C1565       C  0.97080567  0.37345096  0.65136133    -0.23900
C1566       C  0.96553224  0.27915965  0.58247431    -0.28500
C1567       C  0.98674440  0.27056315  0.56354244     0.07100
C1568       C  0.01073762  0.28251050  0.56774303    -0.27100
H1569       H  0.92754325  0.30097448  0.61855245     0.11800
H1570       H  0.92976658  0.34239581  0.64819836     0.13000
H1571       H  0.05329188  0.31105378  0.57717023     0.12000
H1572       H  0.05550762  0.35256925  0.60688391     0.11300
H1573       H  0.03377691  0.38827781  0.63687195     0.16700
H1574       H  0.95345875  0.38124832  0.66266534     0.12600
H1575       H  0.94696128  0.27016542  0.57854386     0.15400
H1576       H  0.02692295  0.27612603  0.55240241     0.15200
C1577       C  0.97108200  0.80970357  0.61696984    -0.17700
C1578       C  0.97394414  0.82787293  0.64307405    -0.19800
C1579       C  0.99196369  0.84781328  0.63971002     0.20800
C1580       C  0.00713154  0.84963090  0.60963467    -0.02800
C1581       C  0.00420649  0.83127708  0.58318201    -0.05800
C1582       C  0.98619918  0.81117461  0.58710453     0.21100
C1583       C  0.01969735  0.83263680  0.55328195     0.19200
C1584       C  0.03764490  0.85270884  0.54997565    -0.17300
C1585       C  0.04038290  0.87106435  0.57611181    -0.19500
C1586       C  0.02531752  0.86962631  0.60612370     0.20700
C1587       C  0.02791789  0.88790538  0.63253933    -0.32500
C1588       C  0.01253404  0.88641480  0.66241593     0.01400
C1589       C  0.99484151  0.86606536  0.66583922    -0.23900
C1590       C  0.98438066  0.79219639  0.56183876    -0.28500
C1591       C  0.00051256  0.79265590  0.53285802     0.07100
C1592       C  0.01768695  0.81326832  0.52808649    -0.27100
H1593       H  0.95724057  0.79429448  0.62032862     0.11800
H1594       H  0.96212730  0.82626229  0.66598117     0.13000
H1595       H  0.04974644  0.85407597  0.52731349     0.12000
H1596       H  0.05441705  0.88631398  0.57293457     0.11300
H1597       H  0.04154086  0.90354963  0.62949806     0.16700
H1598       H  0.98282575  0.86467168  0.68860073     0.12600
H1599       H  0.97138373  0.77608666  0.56562503     0.15400
H1600       H  0.03049545  0.81331659  0.50604209     0.15200
C1601       C  0.01072970  0.80560259  0.86721510    -0.17700
C1602       C  0.00613427  0.82633968  0.84501387    -0.19800
C1603       C  0.98987789  0.84648795  0.85504091     0.20800
C1604       C  0.97775699  0.84547352  0.88753591    -0.02800
C1605       C  0.98216424  0.82436164  0.90979708    -0.05800
C1606       C  0.99898328  0.80448369  0.89976435     0.21100
C1607       C  0.97009187  0.82338315  0.94230464     0.19200
C1608       C  0.95371131  0.84344274  0.95228225    -0.17300
C1609       C  0.94962168  0.86449569  0.93045606    -0.19500
C1610       C  0.96163895  0.86577171  0.89809136     0.20700
C1611       C  0.95826370  0.88721873  0.87646007    -0.32500
C1612       C  0.97066645  0.88865353  0.84420290     0.01400
C1613       C  0.98606891  0.86789521  0.83350021    -0.23900
C1614       C  0.00424607  0.78420660  0.92274766    -0.28500
C1615       C  0.99264652  0.78329049  0.95551777     0.07100
C1616       C  0.97498723  0.80264712  0.96454570    -0.27100
H1617       H  0.02365374  0.79051339  0.85900772     0.11800
H1618       H  0.01561154  0.82679772  0.82015744     0.13000
H1619       H  0.94434351  0.84303698  0.97722139     0.12000
H1620       H  0.93718260  0.87988365  0.93901012     0.11300
H1621       H  0.94634774  0.90301474  0.88506326     0.16700
H1622       H  0.99588058  0.86877153  0.80888126     0.12600
H1623       H  0.01806655  0.76967003  0.91559080     0.15400
H1624       H  0.96530917  0.80179812  0.98922066     0.15200
C1625       C  0.04832302  0.68273629  0.89540824    -0.17700
C1626       C  0.04976023  0.65829409  0.88057939    -0.19800
C1627       C  0.02799542  0.64236262  0.87922764     0.20800
C1628       C  0.00440475  0.65135279  0.89237114    -0.02800
C1629       C  0.00291777  0.67613062  0.90722131    -0.05800
C1630       C  0.02508770  0.69172704  0.90911549     0.21100
C1631       C  0.97959793  0.68477218  0.92165261     0.19200
C1632       C  0.95780407  0.66885079  0.92016692    -0.17300
C1633       C  0.95920954  0.64442483  0.90510815    -0.19500
C1634       C  0.98247608  0.63537560  0.89143790     0.20700
C1635       C  0.98424791  0.61061446  0.87706523    -0.32500
C1636       C  0.00773175  0.60148680  0.86373685     0.01400
C1637       C  0.02951001  0.61757302  0.86511860    -0.23900
C1638       C  0.02412835  0.71515984  0.92693107    -0.28500
C1639       C  0.00148875  0.72301628  0.94350185     0.07100
C1640       C  0.97899942  0.70829636  0.93948145    -0.27100
H1641       H  0.06555073  0.69440692  0.89681101     0.11800
H1642       H  0.06801584  0.65170855  0.87056500     0.13000
H1643       H  0.93908743  0.67737061  0.42655228     0.12000
H1644       H  0.94216059  0.63244789  0.90461574     0.11300
H1645       H  0.96729394  0.59850372  0.87617520     0.16700
H1646       H  0.04768692  0.61091788  0.85490132     0.12600
H1647       H  0.04169298  0.72594046  0.93112758     0.15400
H1648       H  0.96111988  0.71579697  0.44955079     0.15200
loop_ 
_geom_bond_atom_site_label_1 
_geom_bond_atom_site_label_2 
_geom_bond_distance 
_geom_bond_site_symmetry_2 
_ccdc_geom_bond_type 
N1            C2   1.365   1_655  A
N1          C829   1.365   1_655  A
N1          C791   1.449       .  S
C2          C815   1.475       .  S
C2          C827   1.380       .  A
C3            C4   1.364       .  A
C3          C826   1.380   1_554  A
C3            H6   1.083       .  S
C4            C5   1.380       .  A
C4            H7   1.083       .  S
C5          N825   1.365   1_454  A
C5          C767   1.477       .  S
N8            C9   1.357       .  A
N8          C836   1.358   1_554  A
N8          C716   1.443       .  S
C9          C743   1.468       .  S
C9          C834   1.380       .  A
C10          C11   1.369       .  A
C10         C833   1.380       .  A
C10          H13   1.082       .  S
C11          C12   1.381       .  A
C11          H14   1.082       .  S
C12         N832   1.359       .  A
C12         C692   1.473       .  S
N15          C16   1.357       .  A
N15         C843   1.358       .  A
N15         C668   1.444       .  S
C16         C620   1.468       .  S
C16         C841   1.381       .  A
C17          C18   1.371   1_556  A
C17         C840   1.382       .  A
C17          H20   1.082       .  S
C18          C19   1.379   1_554  A
C18          H21   1.082       .  S
C19         N839   1.357       .  A
C19         C647   1.468   1_556  S
N22          C23   1.363       .  A
N22         C850   1.360   1_554  A
N22         C596   1.448       .  S
C23         C551   1.474       .  S
C23         C848   1.382   1_554  A
C24          C25   1.366       .  A
C24         C847   1.382       .  A
C24          H27   1.083       .  S
C25          C26   1.379       .  A
C25          H28   1.082       .  S
C26         N846   1.362       .  A
C26         C572   1.473       .  S
N29          C30   1.363       .  A
N29         C857   1.364       .  A
N29         C524   1.449       .  S
C30         C476   1.476       .  S
C30         C855   1.379       .  A
C31          C32   1.366       .  A
C31         C854   1.379   1_554  A
C31          H34   1.082       .  S
C32          C33   1.383       .  A
C32          H35   1.083       .  S
C33         N853   1.364   1_554  A
C33         C500   1.478       .  S
N36          C37   1.362       .  A
N36         C864   1.361   1_554  A
N36         C452   1.451       .  S
C37         C407   1.473       .  S
C37         C862   1.382       .  A
C38          C39   1.366       .  A
C38         C861   1.382       .  A
C38          H41   1.083       .  S
C39          C40   1.378       .  A
C39          H42   1.083       .  S
C40         N860   1.362       .  A
C40         C431   1.468       .  S
N43          C44   1.360       .  A
N43         C871   1.363   1_554  A
N43         C356   1.447       .  S
C44         C380   1.469       .  S
C44         C869   1.380       .  A
C45          C46   1.367       .  A
C45         C868   1.380       .  A
C45          H48   1.083       .  S
C46          C47   1.381       .  A
C46          H49   1.082       .  S
C47         N867   1.362       .  A
C47         C332   1.475       .  S
N50          C51   1.360       .  A
N50         C878   1.360       .  A
N50         C284   1.445       .  S
C51         C308   1.472       .  S
C51         C876   1.381       .  A
C52          C53   1.367       .  A
C52         C875   1.380   1_554  A
C52          H55   1.083       .  S
C53          C54   1.381       .  A
C53          H56   1.082       .  S
C54         N874   1.362   1_554  A
C54         C260   1.475       .  S
O57         Mg59   2.136       .  S
O57         Mg65   2.143       .  S
O57          C92   1.240       .  S
C58          H97   1.081       .  S
C58          O71   1.237       .  S
C58          O95   1.271       .  A
Mg59         O88   2.136       .  S
Mg59        O103   2.308       .  S
Mg59         O99   2.274       .  S
Mg59         O70   2.302       .  S
O60        Mg102   2.143       .  S
O60         Mg85   2.127       .  S
O60          C81   1.239       .  S
O61          C92   1.274       .  A
O61         Mg85   2.306       .  S
C62         C428   1.479       .  S
C62          O64   1.271       .  A
C62          O76   1.274       .  A
O63          C91   1.271       .  A
O63         Mg65   2.292       .  S
O64         Mg96   2.241       .  S
Mg65         O71   2.134       .  S
Mg65         O79   2.248       .  S
Mg65         O67   2.295       .  S
C66         C311   1.487       .  S
C66         O104   1.272       .  A
C66          O72   1.278       .  A
O67          C74   1.273       .  A
H68          C81   1.081       .  S
C69          H94   1.081       .  S
C69          O83   1.240       .  S
C69          O84   1.275       .  A
O70          C93   1.271       .  A
O71         Mg85   2.134       .  S
O72        Mg102   2.328       .  S
C73         C527   1.490       .  S
C73          O86   1.275       .  A
C73          O78   1.279       .  A
C74         C503   1.481       .  S
C74         O101   1.274       .  A
Mg75         O82   2.142       .  S
Mg75         O83   2.137       .  S
Mg75         O76   2.304       .  S
Mg75         O77   2.299       .  S
Mg75        O104   2.254       .  S
O77          C81   1.272       .  A
O78         Mg85   2.324       .  S
O79          C98   1.271       .  A
O80         C100   1.279       .  A
O80         Mg96   2.333       .  S
O82         Mg96   2.133       .  S
O82          C93   1.237       .  S
O83        Mg102   2.141       .  S
O84         Mg96   2.312       .  S
Mg85        O101   2.267       .  S
O86        Mg102   2.281       .  S
H87          C92   1.081       .  S
O88         Mg96   2.110       .  S
O88          C91   1.238       .  S
H89          C91   1.081       .  S
H90          C93   1.081       .  S
O95        Mg102   2.301       .  S
C98         C383   1.481       .  S
C98         O103   1.276       .  A
O99         C100   1.274       .  A
C100        C455   1.491       .  S
O105       Mg107   2.139       .  S
O105       Mg113   2.138       .  S
O105        C140   1.241   1_545  S
C106        H145   1.081       .  S
C106        O119   1.238       .  S
C106        O143   1.272       .  A
Mg107       O136   2.136       .  S
Mg107       O151   2.355       .  S
Mg107       O147   2.285       .  S
Mg107       O118   2.310   1_545  S
O108       Mg150   2.143       .  S
O108       Mg133   2.130       .  S
O108        C129   1.238       .  S
O109        C140   1.275       .  A
O109       Mg133   2.307       .  S
C110        C575   1.485       .  S
C110        O112   1.272       .  A
C110        O124   1.275       .  A
O111        C139   1.271       .  A
O111       Mg113   2.293       .  S
O112       Mg144   2.258   1_565  S
Mg113       O119   2.128       .  S
Mg113       O127   2.239       .  S
Mg113       O115   2.280       .  S
C114        C479   1.491       .  S
C114        O152   1.273       .  A
C114        O120   1.281       .  A
O115        C122   1.272       .  A
H116        C129   1.081       .  S
C117        H142   1.081   1_565  S
C117        O131   1.240       .  S
C117        O132   1.275   1_565  A
O118        C141   1.273       .  A
O119       Mg133   2.137   1_545  S
O120       Mg150   2.352       .  S
C121        C671   1.487       .  S
C121        O134   1.277       .  A
C121        O126   1.279       .  A
C122        C644   1.484       .  S
C122        O149   1.274   1_545  A
Mg123       O130   2.144       .  S
Mg123       O131   2.140       .  S
Mg123       O124   2.308       .  S
Mg123       O125   2.294       .  S
Mg123       O152   2.250       .  S
O125        C129   1.271       .  A
O126       Mg133   2.317       .  S
O127        C146   1.271       .  A
O128        C148   1.278       .  A
O128       Mg144   2.320       .  S
O130       Mg144   2.135   1_565  S
O130        C141   1.238       .  S
O131       Mg150   2.143       .  S
O132       Mg144   2.309       .  S
Mg133       O149   2.280       .  S
O134       Mg150   2.287       .  S
H135        C140   1.081       .  S
O136       Mg144   2.124       .  S
O136        C139   1.237       .  S
H137        C139   1.081       .  S
H138        C141   1.081       .  S
O143       Mg150   2.303   1_545  S
C146        C404   1.490       .  S
C146        O151   1.281       .  A
O147        C148   1.276       .  A
C148        C599   1.490       .  S
O153       Mg155   2.131   1_565  S
O153       Mg161   2.144       .  S
O153        C188   1.239   1_455  S
C154        H193   1.081       .  S
C154        O167   1.238       .  S
C154        O191   1.273       .  A
Mg155       O184   2.143       .  S
Mg155       O199   2.314       .  S
Mg155       O195   2.273       .  S
Mg155       O166   2.299   1_455  S
O156       Mg198   2.136       .  S
O156       Mg181   2.125       .  S
O156        C177   1.238       .  S
O157        C188   1.273       .  A
O157       Mg181   2.304       .  S
C158        C695   1.481       .  S
C158        O160   1.272   1_655  A
C158        O172   1.273       .  A
O159        C187   1.271   1_565  A
O159       Mg161   2.295       .  S
O160       Mg192   2.256       .  S
Mg161       O167   2.149       .  S
Mg161       O175   2.273       .  S
Mg161       O163   2.318       .  S
C162        C623   1.483       .  S
C162        O200   1.271       .  A
C162        O168   1.278   1_545  A
O163        C170   1.276       .  A
H164        C177   1.081       .  S
C165        H190   1.081       .  S
C165        O179   1.240   1_455  S
C165        O180   1.274       .  A
O166        C189   1.271       .  A
O167       Mg181   2.136   1_455  S
O168       Mg198   2.327       .  S
C169        C788   1.489       .  S
C169        O182   1.274       .  A
C169        O174   1.277       .  A
C170        C764   1.482       .  S
C170        O197   1.272   1_455  A
Mg171       O178   2.124       .  S
Mg171       O179   2.136       .  S
Mg171       O172   2.297       .  S
Mg171       O173   2.298       .  S
Mg171       O200   2.241       .  S
O173        C177   1.271   1_545  A
O174       Mg181   2.321       .  S
O175        C194   1.275       .  A
O176        C196   1.276       .  A
O176       Mg192   2.304       .  S
O178       Mg192   2.131   1_655  S
O178        C189   1.237       .  S
O179       Mg198   2.132   1_545  S
O180       Mg192   2.305       .  S
Mg181       O197   2.244       .  S
O182       Mg198   2.274       .  S
H183        C188   1.081       .  S
O184       Mg192   2.125       .  S
O184        C187   1.238       .  S
H185        C187   1.081       .  S
H186        C189   1.081       .  S
O191       Mg198   2.309   1_455  S
C194        C548   1.484       .  S
C194        O199   1.277   1_565  A
O195        C196   1.274       .  A
C196        C719   1.482       .  S
O201       Mg203   2.137   1_655  S
O201       Mg209   2.136       .  S
O201        C236   1.239       .  S
C202        H241   1.081       .  S
C202        O215   1.238       .  S
C202        O239   1.273       .  A
Mg203       O232   2.133       .  S
Mg203       O247   2.333       .  S
Mg203       O243   2.269       .  S
Mg203       O214   2.309       .  S
O204       Mg246   2.136       .  S
O204       Mg229   2.129       .  S
O204        C225   1.238       .  S
O205        C236   1.273       .  A
O205       Mg229   2.307       .  S
C206        C335   1.485       .  S
C206        O208   1.272       .  A
C206        O220   1.277       .  A
O207        C235   1.272   1_655  A
O207       Mg209   2.301       .  S
O208       Mg240   2.249       .  S
Mg209       O215   2.138       .  S
Mg209       O223   2.248       .  S
Mg209       O211   2.325       .  S
C210        C812   1.491       .  S
C210        O248   1.276       .  A
C210        O216   1.277   1_455  A
O211        C218   1.277       .  A
H212        C225   1.081       .  S
C213        H238   1.081       .  S
C213        O227   1.239       .  S
C213        O228   1.273       .  A
O214        C237   1.273       .  A
O215       Mg229   2.131       .  S
O216       Mg246   2.319       .  S
C217        C287   1.485       .  S
C217        O230   1.273       .  A
C217        O222   1.277       .  A
C218        C263   1.485       .  S
C218        O245   1.272       .  A
Mg219       O226   2.148       .  S
Mg219       O227   2.142       .  S
Mg219       O220   2.323       .  S
Mg219       O221   2.299       .  S
Mg219       O248   2.280       .  S
O221        C225   1.272   1_455  A
O222       Mg229   2.325       .  S
O223        C242   1.273       .  A
O224        C244   1.277       .  A
O224       Mg240   2.324       .  S
O226       Mg240   2.136       .  S
O226        C237   1.239       .  S
O227       Mg246   2.134   1_455  S
O228       Mg240   2.303       .  S
Mg229       O245   2.248       .  S
O230       Mg246   2.267       .  S
H231        C236   1.081       .  S
O232       Mg240   2.131       .  S
O232        C235   1.238       .  S
H233        C235   1.081       .  S
H234        C237   1.081       .  S
O239       Mg246   2.306       .  S
C242        C740   1.486       .  S
C242        O247   1.278   1_655  A
O243        C244   1.274       .  A
C244        C359   1.486       .  S
C249        C250   1.396       .  A
C249        C254   1.403       .  A
C249        H265   1.084       .  S
C250        C251   1.402       .  A
C250        H266   1.084       .  S
C251        C261   1.397       .  A
C251        C252   1.411       .  A
C252        C258   1.413       .  A
C252        C253   1.412       .  A
C253        C255   1.412       .  A
C253        C254   1.410       .  A
C254        C262   1.398       .  A
C255        C264   1.408       .  A
C255        C256   1.405       .  A
C256        C257   1.402       .  A
C256        H267   1.083       .  S
C257        C258   1.404       .  A
C257        H268   1.083       .  S
C258        C259   1.408       .  A
C259        C260   1.405       .  A
C259        H269   1.084       .  S
C260        C261   1.402       .  A
C261        H270   1.085       .  S
C262        C263   1.408       .  A
C262        H271   1.084       .  S
C263        C264   1.410       .  A
C264        H272   1.084       .  S
C273        C274   1.401       .  A
C273        C278   1.404       .  A
C273        H289   1.084       .  S
C274        C275   1.404       .  A
C274        H290   1.083       .  S
C275        C285   1.406       .  A
C275        C276   1.412       .  A
C276        C282   1.411       .  A
C276        C277   1.414       .  A
C277        C279   1.411       .  A
C277        C278   1.411       .  A
C278        C286   1.406       .  A
C279        C288   1.404       .  A
C279        C280   1.404       .  A
C280        C281   1.399       .  A
C280        H291   1.084       .  S
C281        C282   1.404       .  A
C281        H292   1.084       .  S
C282        C283   1.403       .  A
C283        C284   1.407       .  A
C283        H293   1.083       .  S
C284        C285   1.406       .  A
C285        H294   1.082       .  S
C286        C287   1.409       .  A
C286        H295   1.084       .  S
C287        C288   1.408       .  A
C288        H296   1.084       .  S
C297        C298   1.398       .  A
C297        C302   1.404       .  A
C297        H313   1.084       .  S
C298        C299   1.403       .  A
C298        H314   1.083       .  S
C299        C309   1.403       .  A
C299        C300   1.413       .  A
C300        C306   1.411       .  A
C300        C301   1.413       .  A
C301        C303   1.412       .  A
C301        C302   1.410       .  A
C302        C310   1.402       .  A
C303        C312   1.407       .  A
C303        C304   1.404       .  A
C304        C305   1.400       .  A
C304        H315   1.083       .  S
C305        C306   1.404       .  A
C305       H1140   1.084       .  S
C306        C307   1.404       .  A
C307        C308   1.405       .  A
C307       H1141   1.085       .  S
C308        C309   1.403       .  A
C309        H318   1.084       .  S
C310        C311   1.410       .  A
C310        H319   1.084       .  S
C311        C312   1.409       .  A
C312        H320   1.084       .  S
H316       C1129   1.084       .  S
H317       C1131   1.085       .  S
C321        C322   1.396       .  A
C321        C326   1.403       .  A
C321        H337   1.084       .  S
C322        C323   1.402       .  A
C322        H338   1.084       .  S
C323        C333   1.398       .  A
C323        C324   1.411       .  A
C324        C330   1.413       .  A
C324        C325   1.412       .  A
C325        C327   1.411       .  A
C325        C326   1.411       .  A
C326        C334   1.399       .  A
C327        C336   1.406       .  A
C327        C328   1.405       .  A
C328        C329   1.401       .  A
C328        H339   1.083       .  S
C329        C330   1.404       .  A
C329        H340   1.084       .  S
C330        C331   1.407       .  A
C331        C332   1.404       .  A
C331        H341   1.084       .  S
C332        C333   1.403       .  A
C333        H342   1.085       .  S
C334        C335   1.408       .  A
C334        H343   1.084       .  S
C335        C336   1.409       .  A
C336        H344   1.084       .  S
C345        C346   1.401       .  A
C345        C350   1.405       .  A
C345        H361   1.083       .  S
C346        C347   1.404       .  A
C346        H362   1.084       .  S
C347        C357   1.405       .  A
C347        C348   1.411       .  A
C348        C354   1.411       .  A
C348        C349   1.414       .  A
C349        C351   1.411       .  A
C349        C350   1.411       .  A
C350        C358   1.406       .  A
C351        C360   1.404       .  A
C351        C352   1.404       .  A
C352        C353   1.399       .  A
C352        H363   1.084       .  S
C353        C354   1.403       .  A
C353        H364   1.083       .  S
C354        C355   1.403       .  A
C355        C356   1.407       .  A
C355        H365   1.083       .  S
C356        C357   1.408       .  A
C357        H366   1.080       .  S
C358        C359   1.409       .  A
C358        H367   1.084       .  S
C359        C360   1.408       .  A
C360        H368   1.084       .  S
C369        C370   1.399       .  A
C369        C374   1.403       .  A
C369        H385   1.083       .  S
C370        C371   1.403       .  A
C370        H386   1.084       .  S
C371        C381   1.402       .  A
C371        C372   1.411       .  A
C372        C378   1.412       .  A
C372        C373   1.411       .  A
C373        C375   1.410       .  A
C373        C374   1.412       .  A
C374        C382   1.403       .  A
C375        C384   1.400       .  A
C375        C376   1.403       .  A
C376        C377   1.398       .  A
C376        H387   1.084       .  S
C377        C378   1.403       .  A
C377       H1212   1.083       .  S
C378        C379   1.402       .  A
C379        C380   1.403       .  A
C379       H1213   1.084       .  S
C380        C381   1.404       .  A
C381        H390   1.085       .  S
C382        C383   1.407       .  A
C382        H391   1.084       .  S
C383        C384   1.408       .  A
C384        H392   1.084       .  S
H388       C1201   1.083       .  S
H389       C1203   1.084       .  S
C393        C394   1.402       .  A
C393        C398   1.404       .  A
C393        H409   1.083       .  S
C394        C395   1.404       .  A
C394        H410   1.084       .  S
C395        C405   1.409       .  A
C395        C396   1.413       .  A
C396        C402   1.409       .  A
C396        C397   1.413       .  A
C397        C399   1.412       .  A
C397        C398   1.412       .  A
C398        C406   1.407       .  A
C399        C408   1.400       .  A
C399        C400   1.402       .  A
C400        C401   1.397       .  A
C400        H411   1.084       .  S
C401        C402   1.404       .  A
C401        H412   1.083       .  S
C402        C403   1.400       .  A
C403        C404   1.411       .  A
C403        H413   1.084       .  S
C404        C405   1.409       .  A
C405        H414   1.084       .  S
C406        C407   1.404       .  A
C406        H415   1.084       .  S
C407        C408   1.404       .  A
C408        H416   1.085       .  S
C417        C418   1.395       .  A
C417        C422   1.402       .  A
C417        H433   1.084       .  S
C418        C419   1.402       .  A
C418        H434   1.084       .  S
C419        C429   1.397       .  A
C419        C420   1.410       .  A
C420        C426   1.411       .  A
C420        C421   1.410       .  A
C421        C423   1.413       .  A
C421        C422   1.412       .  A
C422        C430   1.397       .  A
C423        C432   1.405       .  A
C423        C424   1.404       .  A
C424        C425   1.400       .  A
C424        H435   1.083       .  S
C425        C426   1.404       .  A
C425        H436   1.084       .  S
C426        C427   1.404       .  A
C427        C428   1.408       .  A
C427        H437   1.084       .  S
C428        C429   1.407       .  A
C429        H438   1.084       .  S
C430        C431   1.401       .  A
C430        H439   1.085       .  S
C431        C432   1.403       .  A
C432        H440   1.084       .  S
C441        C442   1.400       .  A
C441        C446   1.404       .  A
C441        H457   1.084       .  S
C442        C443   1.403       .  A
C442        H458   1.083       .  S
C443        C453   1.405       .  A
C443        C444   1.411       .  A
C444        C450   1.410       .  A
C444        C445   1.415       .  A
C445        C447   1.411       .  A
C445        C446   1.411       .  A
C446        C454   1.405       .  A
C447        C456   1.407       .  A
C447        C448   1.405       .  A
C448        C449   1.401       .  A
C448        H459   1.083       .  S
C449        C450   1.404       .  A
C449        H460   1.084       .  S
C450        C451   1.405       .  A
C451        C452   1.411       .  A
C451        H461   1.082       .  S
C452        C453   1.408       .  A
C453        H462   1.081       .  S
C454        C455   1.409       .  A
C454        H463   1.084       .  S
C455        C456   1.411       .  A
C456        H464   1.084       .  S
C465        C466   1.403       .  A
C465        C470   1.405       .  A
C465        H481   1.084       .  S
C466        C467   1.405       .  A
C466        H482   1.083       .  S
C467        C477   1.408       .  A
C467        C468   1.412       .  A
C468        C474   1.412       .  A
C468        C469   1.414       .  A
C469        C471   1.409       .  A
C469        C470   1.413       .  A
C470        C478   1.411       .  A
C471        C480   1.400       .  A
C471        C472   1.404       .  A
C472        C473   1.397       .  A
C472        H483   1.083       .  S
C473        C474   1.402       .  A
C473        H484   1.084       .  S
C474        C475   1.402       .  A
C475        C476   1.403       .  A
C475        H485   1.085       .  S
C476        C477   1.406       .  A
C477        H486   1.084       .  S
C478        C479   1.410       .  A
C478        H487   1.084       .  S
C479        C480   1.410       .  A
C480        H488   1.084       .  S
C489        C490   1.402       .  A
C489        C494   1.405       .  A
C489        H505   1.084       .  S
C490        C491   1.404       .  A
C490        H506   1.083       .  S
C491        C501   1.409       .  A
C491        C492   1.414       .  A
C492        C498   1.409       .  A
C492        C493   1.412       .  A
C493        C495   1.412       .  A
C493        C494   1.410       .  A
C494        C502   1.405       .  A
C495        C504   1.400       .  A
C495        C496   1.402       .  A
C496        C497   1.396       .  A
C496        H507   1.083       .  S
C497        C498   1.402       .  A
C497        H508   1.084       .  S
C498        C499   1.396       .  A
C499        C500   1.404       .  A
C499        H509   1.085       .  S
C500        C501   1.406       .  A
C501        H510   1.084       .  S
C502        C503   1.410       .  A
C502        H511   1.084       .  S
C503        C504   1.404       .  A
C504        H512   1.084       .  S
C513        C514   1.402       .  A
C513        C518   1.405       .  A
C513        H529   1.083       .  S
C514        C515   1.405       .  A
C514        H530   1.083       .  S
C515        C525   1.408       .  A
C515        C516   1.412       .  A
C516        C522   1.410       .  A
C516        C517   1.415       .  A
C517        C519   1.411       .  A
C517        C518   1.411       .  A
C518        C526   1.408       .  A
C519        C528   1.403       .  A
C519        C520   1.403       .  A
C520        C521   1.398       .  A
C520        H531   1.084       .  S
C521        C522   1.403       .  A
C521        H532   1.084       .  S
C522        C523   1.402       .  A
C523        C524   1.407       .  A
C523        H533   1.082       .  S
C524        C525   1.410       .  A
C525        H534   1.082       .  S
C526        C527   1.411       .  A
C526        H535   1.084       .  S
C527        C528   1.409       .  A
C528        H536   1.084       .  S
C537        C538   1.400       .  A
C537        C542   1.404       .  A
C537        H553   1.083       .  S
C538        C539   1.404       .  A
C538        H554   1.084       .  S
C539        C549   1.405       .  A
C539        C540   1.412   1_545  A
C540        C546   1.411       .  A
C540        C541   1.413       .  A
C541        C543   1.413       .  A
C541        C542   1.410   1_565  A
C542        C550   1.403       .  A
C543        C552   1.405       .  A
C543        C544   1.403       .  A
C544        C545   1.399       .  A
C544       H1379   1.084       .  S
C545        C546   1.404       .  A
C545        H556   1.083       .  S
C546        C547   1.404       .  A
C547        C548   1.408       .  A
C547        H557   1.084       .  S
C548        C549   1.408   1_565  A
C549        H558   1.084       .  S
C550        C551   1.407   1_545  A
C550        H559   1.084       .  S
C551        C552   1.404       .  A
C552       H1384   1.084       .  S
H555       C1368   1.084       .  S
H560       C1376   1.083       .  S
C561        C562   1.401       .  A
C561        C566   1.405       .  A
C561        H577   1.083       .  S
C562        C563   1.404       .  A
C562        H578   1.084       .  S
C563        C573   1.407       .  A
C563        C564   1.414       .  A
C564        C570   1.411   1_565  A
C564        C565   1.412       .  A
C565        C567   1.411   1_565  A
C565        C566   1.411       .  A
C566        C574   1.406       .  A
C567        C576   1.401   1_545  A
C567        C568   1.403       .  A
C568        C569   1.397       .  A
C568        H579   1.084       .  S
C569        C570   1.403       .  A
C569        H580   1.084       .  S
C570        C571   1.399       .  A
C571        C572   1.403   1_545  A
C571        H581   1.085       .  S
C572        C573   1.403       .  A
C573        H582   1.084       .  S
C574        C575   1.409       .  A
C574        H583   1.084       .  S
C575        C576   1.408       .  A
C576        H584   1.084   1_565  S
C585        C586   1.401       .  A
C585        C590   1.405   1_565  A
C585        H601   1.083       .  S
C586        C587   1.404       .  A
C586        H602   1.084       .  S
C587        C597   1.406       .  A
C587        C588   1.412   1_565  A
C588        C594   1.411       .  A
C588        C589   1.415       .  A
C589        C591   1.412       .  A
C589        C590   1.411       .  A
C590        C598   1.406       .  A
C591        C600   1.407       .  A
C591        C592   1.404       .  A
C592        C593   1.401       .  A
C592        H603   1.084       .  S
C593        C594   1.404       .  A
C593        H604   1.083       .  S
C594        C595   1.406       .  A
C595        C596   1.409   1_545  A
C595        H605   1.082       .  S
C596        C597   1.406       .  A
C597        H606   1.080       .  S
C598        C599   1.410       .  A
C598        H607   1.084   1_545  S
C599        C600   1.409       .  A
C600        H608   1.084       .  S
C609        C610   1.400       .  A
C609        C614   1.404       .  A
C609        H625   1.083       .  S
C610        C611   1.404       .  A
C610        H626   1.084       .  S
C611        C621   1.404       .  A
C611        C612   1.412   1_565  A
C612        C618   1.412       .  A
C612        C613   1.411       .  A
C613        C615   1.410       .  A
C613        C614   1.412   1_545  A
C614        C622   1.406       .  A
C615        C624   1.399       .  A
C615        C616   1.403       .  A
C616        C617   1.397       .  A
C616        H627   1.084       .  S
C617        C618   1.402       .  A
C617        H628   1.084       .  S
C618        C619   1.400       .  A
C619        C620   1.401       .  A
C619        H629   1.085       .  S
C620        C621   1.404   1_545  A
C621        H630   1.085       .  S
C622        C623   1.408   1_565  A
C622        H631   1.084       .  S
C623        C624   1.409       .  A
C624        H632   1.084       .  S
C633        C634   1.399       .  A
C633        C638   1.403       .  A
C633        H649   1.084       .  S
C634        C635   1.404       .  A
C634        H650   1.084       .  S
C635        C645   1.402       .  A
C635        C636   1.410       .  A
C636        C642   1.412   1_545  A
C636        C637   1.411       .  A
C637        C639   1.411   1_545  A
C637        C638   1.413       .  A
C638        C646   1.404       .  A
C639        C648   1.400       .  A
C639        C640   1.403       .  A
C640        C641   1.398       .  A
C640        H651   1.084       .  S
C641        C642   1.403       .  A
C641        H652   1.083       .  S
C642        C643   1.403       .  A
C643        C644   1.407   1_565  A
C643        H653   1.084       .  S
C644        C645   1.410       .  A
C645        H654   1.084       .  S
C646        C647   1.402       .  A
C646        H655   1.085       .  S
C647        C648   1.402   1_545  A
C648        H656   1.085       .  S
C657        C658   1.399       .  A
C657        C662   1.404   1_545  A
C657        H673   1.083       .  S
C658        C659   1.403       .  A
C658        H674   1.084       .  S
C659        C669   1.403       .  A
C659        C660   1.412   1_545  A
C660        C666   1.411       .  A
C660        C661   1.414       .  A
C661        C663   1.412       .  A
C661        C662   1.411       .  A
C662        C670   1.403       .  A
C663        C672   1.408       .  A
C663        C664   1.404       .  A
C664        C665   1.401       .  A
C664        H675   1.083       .  S
C665        C666   1.404       .  A
C665        H676   1.083       .  S
C666        C667   1.406       .  A
C667        C668   1.408   1_565  A
C667        H677   1.083       .  S
C668        C669   1.405       .  A
C669        H678   1.083       .  S
C670        C671   1.409       .  A
C670        H679   1.084       .  S
C671        C672   1.409       .  A
C672        H680   1.084       .  S
C681        C682   1.401       .  A
C681        C686   1.405       .  A
C681        H697   1.084       .  S
C682        C683   1.404       .  A
C682        H698   1.083       .  S
C683        C693   1.407       .  A
C683        C684   1.414       .  A
C684        C690   1.410   1_655  A
C684        C685   1.410       .  A
C685        C687   1.412   1_655  A
C685        C686   1.410       .  A
C686        C694   1.404       .  A
C687        C696   1.399       .  A
C687        C688   1.402       .  A
C688        C689   1.396       .  A
C688        H699   1.083       .  S
C689        C690   1.402       .  A
C689        H700   1.084       .  S
C690        C691   1.396       .  A
C691        C692   1.402   1_455  A
C691        H701   1.085       .  S
C692        C693   1.404       .  A
C693        H702   1.084       .  S
C694        C695   1.410       .  A
C694        H703   1.084       .  S
C695        C696   1.406   1_655  A
C696        H704   1.084       .  S
C705        C706   1.399       .  A
C705        C710   1.404       .  A
C705        H721   1.084       .  S
C706        C707   1.403       .  A
C706        H722   1.083       .  S
C707        C717   1.403       .  A
C707        C708   1.411       .  A
C708        C714   1.411   1_455  A
C708        C709   1.412       .  A
C709        C711   1.411       .  A
C709        C710   1.412       .  A
C710        C718   1.404       .  A
C711        C720   1.403       .  A
C711        C712   1.404   1_455  A
C712        C713   1.399       .  A
C712        H723   1.083       .  S
C713        C714   1.403       .  A
C713        H724   1.084       .  S
C714        C715   1.403       .  A
C715        C716   1.406       .  A
C715        H725   1.083       .  S
C716        C717   1.406   1_655  A
C717        H726   1.083       .  S
C718        C719   1.407       .  A
C718        H727   1.084       .  S
C719        C720   1.409       .  A
C720        H728   1.084   1_455  S
C729        C730   1.396       .  A
C729        C734   1.401       .  A
C729        H745   1.084       .  S
C730        C731   1.403       .  A
C730        H746   1.083       .  S
C731        C741   1.398       .  A
C731        C732   1.409       .  A
C732        C738   1.413   1_655  A
C732        C733   1.412       .  A
C733        C735   1.411   1_655  A
C733        C734   1.413       .  A
C734        C742   1.400       .  A
C735        C744   1.405       .  A
C735        C736   1.405       .  A
C736        C737   1.401       .  A
C736        H747   1.083       .  S
C737        C738   1.405       .  A
C737        H748   1.084       .  S
C738        C739   1.408       .  A
C739        C740   1.409   1_455  A
C739        H749   1.084       .  S
C740        C741   1.408       .  A
C741        H750   1.084       .  S
C742        C743   1.400       .  A
C742        H751   1.085       .  S
C743        C744   1.405   1_655  A
C744        H752   1.085       .  S
C753        C754   1.395       .  A
C753        C758   1.402       .  A
C753        H769   1.084       .  S
C754        C755   1.402       .  A
C754        H770   1.084       .  S
C755        C765   1.397       .  A
C755        C756   1.411   1_655  A
C756        C762   1.411       .  A
C756        C757   1.411       .  A
C757        C759   1.414       .  A
C757        C758   1.410   1_455  A
C758        C766   1.396       .  A
C759        C768   1.409       .  A
C759        C760   1.405       .  A
C760        C761   1.402       .  A
C760        H771   1.083       .  S
C761        C762   1.405       .  A
C761        H772   1.084       .  S
C762        C763   1.407       .  A
C763        C764   1.410       .  A
C763        H773   1.084       .  S
C764        C765   1.407   1_455  A
C765        H774   1.084       .  S
C766        C767   1.403   1_655  A
C766        H775   1.085       .  S
C767        C768   1.406       .  A
C768        H776   1.084       .  S
C777        C778   1.401       .  A
C777        C782   1.404   1_455  A
C777        H793   1.084       .  S
C778        C779   1.404   1_455  A
C778        H794   1.083       .  S
C779        C789   1.405       .  A
C779        C780   1.411       .  A
C780        C786   1.412       .  A
C780        C781   1.415       .  A
C781        C783   1.410       .  A
C781        C782   1.412       .  A
C782        C790   1.408   1_655  A
C783        C792   1.405       .  A
C783        C784   1.404       .  A
C784        C785   1.401       .  A
C784        H795   1.084       .  S
C785        C786   1.404       .  A
C785        H796   1.084       .  S
C786        C787   1.406       .  A
C787        C788   1.409       .  A
C787        H797   1.084       .  S
C788        C789   1.409       .  A
C789        H798   1.084       .  S
C790        C791   1.408   1_455  A
C790        H799   1.082       .  S
C791        C792   1.409       .  A
C792        H800   1.083       .  S
C801        C802   1.399       .  A
C801        C806   1.403       .  A
C801        H817   1.084       .  S
C802        C803   1.403       .  A
C802        H818   1.083       .  S
C803        C813   1.404       .  A
C803        C804   1.411       .  A
C804        C810   1.411   1_455  A
C804        C805   1.415       .  A
C805        C807   1.412   1_455  A
C805        C806   1.412       .  A
C806        C814   1.403       .  A
C807        C816   1.408       .  A
C807        C808   1.405       .  A
C808        C809   1.402       .  A
C808       H1643   1.083       .  S
C809        C810   1.405       .  A
C809        H820   1.084       .  S
C810        C811   1.408       .  A
C811        C812   1.411   1_655  A
C811        H821   1.084       .  S
C812        C813   1.409       .  A
C813        H822   1.084       .  S
C814        C815   1.404       .  A
C814        H823   1.085       .  S
C815        C816   1.407   1_455  A
C816       H1648   1.084       .  S
H819       C1632   1.083       .  S
H824       C1640   1.085       .  S
N825        C826   1.365   1_655  A
N825       C1615   1.451       .  S
C826       C1639   1.475       .  S
C827        C828   1.364       .  A
C827        H830   1.083       .  S
C828        C829   1.380       .  A
C828        H831   1.082       .  S
C829       C1591   1.477       .  S
N832        C833   1.357       .  A
N832       C1540   1.443       .  S
C833       C1567   1.469       .  S
C834        C835   1.369   1_554  A
C834        H837   1.082   1_554  S
C835        C836   1.382       .  A
C835        H838   1.082       .  S
C836       C1516   1.472       .  S
N839        C840   1.357       .  A
N839       C1492   1.443       .  S
C840       C1444   1.471       .  S
C841        C842   1.369       .  A
C841        H844   1.082       .  S
C842        C843   1.380       .  A
C842        H845   1.082       .  S
C843       C1471   1.468       .  S
N846        C847   1.365       .  A
N846       C1420   1.449       .  S
C847       C1375   1.477       .  S
C848        C849   1.367       .  A
C848        H851   1.083       .  S
C849        C850   1.379       .  A
C849        H852   1.082       .  S
C850       C1396   1.470       .  S
N853        C854   1.362       .  A
N853       C1348   1.450       .  S
C854       C1300   1.474       .  S
C855        C856   1.367       .  A
C855        H858   1.082       .  S
C856        C857   1.383       .  A
C856        H859   1.082       .  S
C857       C1324   1.479       .  S
N860        C861   1.362       .  A
N860       C1276   1.452       .  S
C861       C1231   1.473       .  S
C862        C863   1.367   1_554  A
C862        H865   1.082       .  S
C863        C864   1.378       .  A
C863        H866   1.082       .  S
C864       C1255   1.468       .  S
N867        C868   1.359       .  A
N867       C1180   1.447       .  S
C868       C1204   1.470       .  S
C869        C870   1.366   1_554  A
C869        H872   1.083       .  S
C870        C871   1.382       .  A
C870        H873   1.082       .  S
C871       C1156   1.477       .  S
N874        C875   1.361       .  A
N874       C1108   1.447       .  S
C875       C1132   1.472       .  S
C876        C877   1.368       .  A
C876        H879   1.082       .  S
C877        C878   1.380       .  A
C877        H880   1.082       .  S
C878       C1084   1.474       .  S
O881       Mg883   2.137       .  S
O881       Mg889   2.143       .  S
O881        C916   1.240       .  S
C882        H921   1.081       .  S
C882        O895   1.237       .  S
C882        O919   1.271       .  A
Mg883       O912   2.136       .  S
Mg883       O927   2.311       .  S
Mg883       O923   2.275       .  S
Mg883       O894   2.303       .  S
O884       Mg926   2.144       .  S
O884       Mg909   2.131       .  S
O884        C905   1.239       .  S
O885        C916   1.274       .  A
O885       Mg909   2.306       .  S
C886       C1252   1.478       .  S
C886        O888   1.271       .  A
C886        O900   1.274       .  A
O887        C915   1.271       .  A
O887       Mg889   2.292       .  S
O888       Mg920   2.242       .  S
Mg889       O895   2.134       .  S
Mg889       O903   2.250       .  S
Mg889       O891   2.293       .  S
C890       C1135   1.487       .  S
C890        O928   1.272       .  A
C890        O896   1.278       .  A
O891        C898   1.273       .  A
H892        C905   1.081       .  S
C893        H918   1.081       .  S
C893        O907   1.240       .  S
C893        O908   1.275       .  A
O894        C917   1.271       .  A
O895       Mg909   2.135       .  S
O896       Mg926   2.331       .  S
C897       C1351   1.491       .  S
C897        O910   1.276       .  A
C897        O902   1.280       .  A
C898       C1327   1.482       .  S
C898        O925   1.275       .  A
Mg899       O906   2.141       .  S
Mg899       O907   2.138       .  S
Mg899       O900   2.302       .  S
Mg899       O901   2.299       .  S
Mg899       O928   2.253       .  S
O901        C905   1.272       .  A
O902       Mg909   2.329       .  S
O903        C922   1.271       .  A
O904        C924   1.279       .  A
O904       Mg920   2.335       .  S
O906       Mg920   2.135       .  S
O906        C917   1.237       .  S
O907       Mg926   2.144       .  S
O908       Mg920   2.313       .  S
Mg909       O925   2.277       .  S
O910       Mg926   2.283       .  S
H911        C916   1.081       .  S
O912       Mg920   2.111       .  S
O912        C915   1.238       .  S
H913        C915   1.081       .  S
H914        C917   1.081       .  S
O919       Mg926   2.300       .  S
C922       C1207   1.483       .  S
C922        O927   1.276       .  A
O923        C924   1.274       .  A
C924       C1279   1.492       .  S
O929       Mg931   2.136       .  S
O929       Mg937   2.138       .  S
O929        C964   1.241   1_545  S
C930        H969   1.081       .  S
C930        O943   1.238       .  S
C930        O967   1.272       .  A
Mg931       O960   2.134       .  S
Mg931       O975   2.346       .  S
Mg931       O971   2.286       .  S
Mg931       O942   2.310   1_545  S
O932       Mg974   2.142       .  S
O932       Mg957   2.122       .  S
O932        C953   1.237       .  S
O933        C964   1.275       .  A
O933       Mg957   2.307       .  S
C934       C1399   1.481       .  S
C934        O936   1.271       .  A
C934        O948   1.274       .  A
O935        C963   1.270       .  A
O935       Mg937   2.293       .  S
O936       Mg968   2.248   1_565  S
Mg937       O943   2.133       .  S
Mg937       O951   2.246       .  S
Mg937       O939   2.287       .  S
C938       C1303   1.490       .  S
C938        O976   1.273       .  A
C938        O944   1.281       .  A
O939        C946   1.272       .  A
H940        C953   1.081       .  S
C941        H966   1.081   1_565  S
C941        O955   1.240       .  S
C941        O956   1.274   1_565  A
O942        C965   1.273       .  A
O943       Mg957   2.134   1_545  S
O944       Mg974   2.345       .  S
C945       C1495   1.486       .  S
C945        O958   1.277       .  A
C945        O950   1.277       .  A
C946       C1468   1.480       .  S
C946        O973   1.272   1_545  A
Mg947       O954   2.144       .  S
Mg947       O955   2.141       .  S
Mg947       O948   2.302       .  S
Mg947       O949   2.293       .  S
Mg947       O976   2.251       .  S
O949        C953   1.270       .  A
O950       Mg957   2.305       .  S
O951        C970   1.272       .  A
O952        C972   1.277       .  A
O952       Mg968   2.316       .  S
O954       Mg968   2.136   1_565  S
O954        C965   1.238       .  S
O955       Mg974   2.140       .  S
O956       Mg968   2.308       .  S
Mg957       O973   2.261       .  S
O958       Mg974   2.292       .  S
H959        C964   1.081       .  S
O960       Mg968   2.118       .  S
O960        C963   1.237       .  S
H961        C963   1.081       .  S
H962        C965   1.081       .  S
O967       Mg974   2.304   1_545  S
C970       C1228   1.489       .  S
C970        O975   1.280       .  A
O971        C972   1.276       .  A
C972       C1423   1.490       .  S
O977       Mg979   2.137   1_565  S
O977       Mg985   2.148       .  S
O977       C1012   1.239   1_455  S
C978       H1017   1.081       .  S
C978        O991   1.239       .  S
C978       O1015   1.273       .  A
Mg979      O1008   2.145       .  S
Mg979      O1023   2.311       .  S
Mg979      O1019   2.275       .  S
Mg979       O990   2.296   1_455  S
O980      Mg1022   2.136       .  S
O980      Mg1005   2.130       .  S
O980       C1001   1.239       .  S
O981       C1012   1.273       .  A
O981      Mg1005   2.306       .  S
C982       C1519   1.479       .  S
C982        O984   1.271   1_655  A
C982        O996   1.274       .  A
O983       C1011   1.270   1_565  A
O983       Mg985   2.292       .  S
O984      Mg1016   2.255       .  S
Mg985       O991   2.149       .  S
Mg985       O999   2.271       .  S
Mg985       O987   2.314       .  S
C986       C1447   1.485       .  S
C986       O1024   1.271       .  A
C986        O992   1.279   1_545  A
O987        C994   1.276       .  A
H988       C1001   1.081       .  S
C989       H1014   1.081       .  S
C989       O1003   1.240   1_455  S
C989       O1004   1.274       .  A
O990       C1013   1.270       .  A
O991      Mg1005   2.137   1_455  S
O992      Mg1022   2.338       .  S
C993       C1612   1.491       .  S
C993       O1006   1.275       .  A
C993        O998   1.278       .  A
C994       C1588   1.485       .  S
C994       O1021   1.273   1_455  A
Mg995      O1002   2.121       .  S
Mg995      O1003   2.134       .  S
Mg995       O996   2.296       .  S
Mg995       O997   2.300       .  S
Mg995      O1024   2.239       .  S
O997       C1001   1.272   1_545  A
O998      Mg1005   2.327       .  S
O999       C1018   1.275       .  A
O1000      C1020   1.276       .  A
O1000     Mg1016   2.302       .  S
O1002     Mg1016   2.132   1_655  S
O1002      C1013   1.237       .  S
O1003     Mg1022   2.133   1_545  S
O1004     Mg1016   2.305       .  S
Mg1005     O1021   2.258       .  S
O1006     Mg1022   2.277       .  S
H1007      C1012   1.081       .  S
O1008     Mg1016   2.122       .  S
O1008      C1011   1.237       .  S
H1009      C1011   1.081       .  S
H1010      C1013   1.081       .  S
O1015     Mg1022   2.311   1_455  S
C1018      C1372   1.482       .  S
C1018      O1023   1.276   1_565  A
O1019      C1020   1.275       .  A
C1020      C1543   1.482       .  S
O1025     Mg1027   2.138   1_655  S
O1025     Mg1033   2.135       .  S
O1025      C1060   1.239       .  S
C1026      H1065   1.081       .  S
C1026      O1039   1.238       .  S
C1026      O1063   1.272       .  A
Mg1027     O1056   2.132       .  S
Mg1027     O1071   2.338       .  S
Mg1027     O1067   2.274       .  S
Mg1027     O1038   2.311       .  S
O1028     Mg1070   2.135       .  S
O1028     Mg1053   2.129       .  S
O1028      C1049   1.238       .  S
O1029      C1060   1.274       .  A
O1029     Mg1053   2.308       .  S
C1030      C1159   1.484       .  S
C1030      O1032   1.272       .  A
C1030      O1044   1.277       .  A
O1031      C1059   1.272   1_655  A
O1031     Mg1033   2.303       .  S
O1032     Mg1064   2.250       .  S
Mg1033     O1039   2.137       .  S
Mg1033     O1047   2.248       .  S
Mg1033     O1035   2.323       .  S
C1034      C1636   1.491       .  S
C1034      O1072   1.276       .  A
C1034      O1040   1.277   1_455  A
O1035      C1042   1.276       .  A
H1036      C1049   1.081       .  S
C1037      H1062   1.081       .  S
C1037      O1051   1.239       .  S
C1037      O1052   1.273       .  A
O1038      C1061   1.274       .  A
O1039     Mg1053   2.131       .  S
O1040     Mg1070   2.320       .  S
C1041      C1111   1.487       .  S
C1041      O1054   1.273       .  A
C1041      O1046   1.278       .  A
C1042      C1087   1.485       .  S
C1042      O1069   1.272       .  A
Mg1043     O1050   2.150       .  S
Mg1043     O1051   2.142       .  S
Mg1043     O1044   2.323       .  S
Mg1043     O1045   2.298       .  S
Mg1043     O1072   2.282       .  S
O1045      C1049   1.272   1_455  A
O1046     Mg1053   2.330       .  S
O1047      C1066   1.272       .  A
O1048      C1068   1.277       .  A
O1048     Mg1064   2.324       .  S
O1050     Mg1064   2.137       .  S
O1050      C1061   1.239       .  S
O1051     Mg1070   2.133   1_455  S
O1052     Mg1064   2.303       .  S
Mg1053     O1069   2.249       .  S
O1054     Mg1070   2.264       .  S
H1055      C1060   1.081       .  S
O1056     Mg1064   2.132       .  S
O1056      C1059   1.238       .  S
H1057      C1059   1.081       .  S
H1058      C1061   1.081       .  S
O1063     Mg1070   2.305       .  S
C1066      C1564   1.487       .  S
C1066      O1071   1.279   1_655  A
O1067      C1068   1.274       .  A
C1068      C1183   1.487       .  S
C1073      C1074   1.396       .  A
C1073      C1078   1.403       .  A
C1073      H1089   1.084       .  S
C1074      C1075   1.402       .  A
C1074      H1090   1.084       .  S
C1075      C1085   1.397       .  A
C1075      C1076   1.411       .  A
C1076      C1082   1.413       .  A
C1076      C1077   1.412       .  A
C1077      C1079   1.412       .  A
C1077      C1078   1.410       .  A
C1078      C1086   1.398       .  A
C1079      C1088   1.408       .  A
C1079      C1080   1.405       .  A
C1080      C1081   1.402       .  A
C1080      H1091   1.083       .  S
C1081      C1082   1.404       .  A
C1081      H1092   1.083       .  S
C1082      C1083   1.408       .  A
C1083      C1084   1.405       .  A
C1083      H1093   1.084       .  S
C1084      C1085   1.402       .  A
C1085      H1094   1.085       .  S
C1086      C1087   1.408       .  A
C1086      H1095   1.084       .  S
C1087      C1088   1.410       .  A
C1088      H1096   1.084       .  S
C1097      C1098   1.401       .  A
C1097      C1102   1.404       .  A
C1097      H1113   1.084       .  S
C1098      C1099   1.404       .  A
C1098      H1114   1.083       .  S
C1099      C1109   1.407       .  A
C1099      C1100   1.411       .  A
C1100      C1106   1.411       .  A
C1100      C1101   1.414       .  A
C1101      C1103   1.411       .  A
C1101      C1102   1.412       .  A
C1102      C1110   1.407       .  A
C1103      C1112   1.403       .  A
C1103      C1104   1.404       .  A
C1104      C1105   1.399       .  A
C1104      H1115   1.084       .  S
C1105      C1106   1.403       .  A
C1105      H1116   1.084       .  S
C1106      C1107   1.403       .  A
C1107      C1108   1.407       .  A
C1107      H1117   1.083       .  S
C1108      C1109   1.407       .  A
C1109      H1118   1.081       .  S
C1110      C1111   1.409       .  A
C1110      H1119   1.084       .  S
C1111      C1112   1.408       .  A
C1112      H1120   1.084       .  S
C1121      C1122   1.398       .  A
C1121      C1126   1.404       .  A
C1121      H1137   1.084       .  S
C1122      C1123   1.403       .  A
C1122      H1138   1.083       .  S
C1123      C1133   1.403       .  A
C1123      C1124   1.413       .  A
C1124      C1130   1.411       .  A
C1124      C1125   1.413       .  A
C1125      C1127   1.412       .  A
C1125      C1126   1.410       .  A
C1126      C1134   1.402       .  A
C1127      C1136   1.407       .  A
C1127      C1128   1.404       .  A
C1128      C1129   1.400       .  A
C1128      H1139   1.083       .  S
C1129      C1130   1.404       .  A
C1130      C1131   1.404       .  A
C1131      C1132   1.405       .  A
C1132      C1133   1.403       .  A
C1133      H1142   1.084       .  S
C1134      C1135   1.410       .  A
C1134      H1143   1.084       .  S
C1135      C1136   1.408       .  A
C1136      H1144   1.084       .  S
C1145      C1146   1.396       .  A
C1145      C1150   1.403       .  A
C1145      H1161   1.084       .  S
C1146      C1147   1.402       .  A
C1146      H1162   1.084       .  S
C1147      C1157   1.397       .  A
C1147      C1148   1.410       .  A
C1148      C1154   1.413       .  A
C1148      C1149   1.412       .  A
C1149      C1151   1.411       .  A
C1149      C1150   1.411       .  A
C1150      C1158   1.399       .  A
C1151      C1160   1.406       .  A
C1151      C1152   1.405       .  A
C1152      C1153   1.401       .  A
C1152      H1163   1.083       .  S
C1153      C1154   1.404       .  A
C1153      H1164   1.084       .  S
C1154      C1155   1.407       .  A
C1155      C1156   1.404       .  A
C1155      H1165   1.084   1_556  S
C1156      C1157   1.404       .  A
C1157      H1166   1.085       .  S
C1158      C1159   1.408       .  A
C1158      H1167   1.084       .  S
C1159      C1160   1.409       .  A
C1160      H1168   1.084       .  S
C1169      C1170   1.401       .  A
C1169      C1174   1.405       .  A
C1169      H1185   1.083       .  S
C1170      C1171   1.404       .  A
C1170      H1186   1.084       .  S
C1171      C1181   1.406       .  A
C1171      C1172   1.411       .  A
C1172      C1178   1.411       .  A
C1172      C1173   1.414       .  A
C1173      C1175   1.411       .  A
C1173      C1174   1.411       .  A
C1174      C1182   1.406       .  A
C1175      C1184   1.404       .  A
C1175      C1176   1.404       .  A
C1176      C1177   1.399       .  A
C1176      H1187   1.084       .  S
C1177      C1178   1.403       .  A
C1177      H1188   1.083       .  S
C1178      C1179   1.403       .  A
C1179      C1180   1.407       .  A
C1179      H1189   1.083       .  S
C1180      C1181   1.408       .  A
C1181      H1190   1.081       .  S
C1182      C1183   1.410       .  A
C1182      H1191   1.084       .  S
C1183      C1184   1.408       .  A
C1184      H1192   1.084       .  S
C1193      C1194   1.399       .  A
C1193      C1198   1.403       .  A
C1193      H1209   1.083       .  S
C1194      C1195   1.403       .  A
C1194      H1210   1.084       .  S
C1195      C1205   1.402       .  A
C1195      C1196   1.411       .  A
C1196      C1202   1.412       .  A
C1196      C1197   1.411       .  A
C1197      C1199   1.410       .  A
C1197      C1198   1.412       .  A
C1198      C1206   1.404       .  A
C1199      C1208   1.401       .  A
C1199      C1200   1.403       .  A
C1200      C1201   1.398       .  A
C1200      H1211   1.084       .  S
C1201      C1202   1.403       .  A
C1202      C1203   1.402       .  A
C1203      C1204   1.403       .  A
C1204      C1205   1.404       .  A
C1205      H1214   1.085       .  S
C1206      C1207   1.408       .  A
C1206      H1215   1.084       .  S
C1207      C1208   1.409       .  A
C1208      H1216   1.084       .  S
C1217      C1218   1.401       .  A
C1217      C1222   1.404       .  A
C1217      H1233   1.083       .  S
C1218      C1219   1.404       .  A
C1218      H1234   1.084       .  S
C1219      C1229   1.408       .  A
C1219      C1220   1.412       .  A
C1220      C1226   1.410       .  A
C1220      C1221   1.413       .  A
C1221      C1223   1.412       .  A
C1221      C1222   1.413       .  A
C1222      C1230   1.407       .  A
C1223      C1232   1.400       .  A
C1223      C1224   1.402       .  A
C1224      C1225   1.397       .  A
C1224      H1235   1.084       .  S
C1225      C1226   1.404       .  A
C1225      H1236   1.083       .  S
C1226      C1227   1.401       .  A
C1227      C1228   1.410       .  A
C1227      H1237   1.084       .  S
C1228      C1229   1.409       .  A
C1229      H1238   1.084       .  S
C1230      C1231   1.404       .  A
C1230      H1239   1.084       .  S
C1231      C1232   1.404       .  A
C1232      H1240   1.085       .  S
C1241      C1242   1.396       .  A
C1241      C1246   1.402       .  A
C1241      H1257   1.084       .  S
C1242      C1243   1.403       .  A
C1242      H1258   1.083       .  S
C1243      C1253   1.398       .  A
C1243      C1244   1.411       .  A
C1244      C1250   1.411       .  A
C1244      C1245   1.410       .  A
C1245      C1247   1.413       .  A
C1245      C1246   1.412       .  A
C1246      C1254   1.398       .  A
C1247      C1256   1.404       .  A
C1247      C1248   1.403       .  A
C1248      C1249   1.400       .  A
C1248      H1259   1.083       .  S
C1249      C1250   1.404       .  A
C1249      H1260   1.084       .  S
C1250      C1251   1.403       .  A
C1251      C1252   1.408       .  A
C1251      H1261   1.084       .  S
C1252      C1253   1.407       .  A
C1253      H1262   1.084       .  S
C1254      C1255   1.401       .  A
C1254      H1263   1.085       .  S
C1255      C1256   1.402       .  A
C1256      H1264   1.084       .  S
C1265      C1266   1.400       .  A
C1265      C1270   1.404       .  A
C1265      H1281   1.083       .  S
C1266      C1267   1.404       .  A
C1266      H1282   1.083       .  S
C1267      C1277   1.406       .  A
C1267      C1268   1.411       .  A
C1268      C1274   1.410       .  A
C1268      C1269   1.415       .  A
C1269      C1271   1.411       .  A
C1269      C1270   1.411       .  A
C1270      C1278   1.406       .  A
C1271      C1280   1.406       .  A
C1271      C1272   1.405       .  A
C1272      C1273   1.401       .  A
C1272      H1283   1.083       .  S
C1273      C1274   1.404       .  A
C1273      H1284   1.084       .  S
C1274      C1275   1.404       .  A
C1275      C1276   1.411       .  A
C1275      H1285   1.082       .  S
C1276      C1277   1.409       .  A
C1277      H1286   1.082       .  S
C1278      C1279   1.410       .  A
C1278      H1287   1.084       .  S
C1279      C1280   1.411       .  A
C1280      H1288   1.084       .  S
C1289      C1290   1.402       .  A
C1289      C1294   1.405       .  A
C1289      H1305   1.084       .  S
C1290      C1291   1.404       .  A
C1290      H1306   1.083       .  S
C1291      C1301   1.407       .  A
C1291      C1292   1.412       .  A
C1292      C1298   1.412       .  A
C1292      C1293   1.414       .  A
C1293      C1295   1.410       .  A
C1293      C1294   1.412       .  A
C1294      C1302   1.409       .  A
C1295      C1304   1.401       .  A
C1295      C1296   1.404       .  A
C1296      C1297   1.397       .  A
C1296      H1307   1.083       .  S
C1297      C1298   1.402       .  A
C1297      H1308   1.084       .  S
C1298      C1299   1.401       .  A
C1299      C1300   1.403       .  A
C1299      H1309   1.085       .  S
C1300      C1301   1.405       .  A
C1301      H1310   1.084       .  S
C1302      C1303   1.409       .  A
C1302      H1311   1.084       .  S
C1303      C1304   1.410       .  A
C1304      H1312   1.084       .  S
C1313      C1314   1.402       .  A
C1313      C1318   1.406       .  A
C1313      H1329   1.084       .  S
C1314      C1315   1.404       .  A
C1314      H1330   1.083       .  S
C1315      C1325   1.410       .  A
C1315      C1316   1.415       .  A
C1316      C1322   1.409       .  A
C1316      C1317   1.412       .  A
C1317      C1319   1.413       .  A
C1317      C1318   1.410       .  A
C1318      C1326   1.406       .  A
C1319      C1328   1.401       .  A
C1319      C1320   1.402       .  A
C1320      C1321   1.396       .  A
C1320      H1331   1.083       .  S
C1321      C1322   1.402       .  A
C1321      H1332   1.084       .  S
C1322      C1323   1.396       .  A
C1323      C1324   1.404       .  A
C1323      H1333   1.085       .  S
C1324      C1325   1.406       .  A
C1325      H1334   1.084       .  S
C1326      C1327   1.411       .  A
C1326      H1335   1.084       .  S
C1327      C1328   1.404       .  A
C1328      H1336   1.084       .  S
C1337      C1338   1.402       .  A
C1337      C1342   1.405       .  A
C1337      H1353   1.083       .  S
C1338      C1339   1.405       .  A
C1338      H1354   1.083       .  S
C1339      C1349   1.408       .  A
C1339      C1340   1.411       .  A
C1340      C1346   1.410       .  A
C1340      C1341   1.415       .  A
C1341      C1343   1.411       .  A
C1341      C1342   1.411       .  A
C1342      C1350   1.408       .  A
C1343      C1352   1.404       .  A
C1343      C1344   1.403       .  A
C1344      C1345   1.399       .  A
C1344      H1355   1.084       .  S
C1345      C1346   1.403       .  A
C1345      H1356   1.084       .  S
C1346      C1347   1.403       .  A
C1347      C1348   1.408       .  A
C1347      H1357   1.082       .  S
C1348      C1349   1.410       .  A
C1349      H1358   1.082       .  S
C1350      C1351   1.411       .  A
C1350      H1359   1.084       .  S
C1351      C1352   1.409       .  A
C1352      H1360   1.084       .  S
C1361      C1362   1.400       .  A
C1361      C1366   1.405       .  A
C1361      H1377   1.083       .  S
C1362      C1363   1.404       .  A
C1362      H1378   1.084       .  S
C1363      C1373   1.406       .  A
C1363      C1364   1.412   1_545  A
C1364      C1370   1.411       .  A
C1364      C1365   1.414       .  A
C1365      C1367   1.413       .  A
C1365      C1366   1.410   1_565  A
C1366      C1374   1.404       .  A
C1367      C1376   1.405       .  A
C1367      C1368   1.403       .  A
C1368      C1369   1.399       .  A
C1369      C1370   1.404       .  A
C1369      H1380   1.083       .  S
C1370      C1371   1.403       .  A
C1371      C1372   1.407       .  A
C1371      H1381   1.084       .  S
C1372      C1373   1.408   1_565  A
C1373      H1382   1.084       .  S
C1374      C1375   1.408   1_545  A
C1374      H1383   1.084       .  S
C1375      C1376   1.404       .  A
C1385      C1386   1.400       .  A
C1385      C1390   1.404       .  A
C1385      H1401   1.083       .  S
C1386      C1387   1.404       .  A
C1386      H1402   1.084       .  S
C1387      C1397   1.406       .  A
C1387      C1388   1.413       .  A
C1388      C1394   1.411   1_565  A
C1388      C1389   1.411       .  A
C1389      C1391   1.411   1_565  A
C1389      C1390   1.411       .  A
C1390      C1398   1.404       .  A
C1391      C1400   1.399       .  A
C1391      C1392   1.403       .  A
C1392      C1393   1.397       .  A
C1392      H1403   1.084       .  S
C1393      C1394   1.402       .  A
C1393      H1404   1.084       .  S
C1394      C1395   1.398       .  A
C1395      C1396   1.402   1_545  A
C1395      H1405   1.085       .  S
C1396      C1397   1.403       .  A
C1397      H1406   1.084       .  S
C1398      C1399   1.408       .  A
C1398      H1407   1.084       .  S
C1399      C1400   1.407   1_565  A
C1400      H1408   1.084       .  S
C1409      C1410   1.400       .  A
C1409      C1414   1.405   1_565  A
C1409      H1425   1.083       .  S
C1410      C1411   1.404       .  A
C1410      H1426   1.084       .  S
C1411      C1421   1.406       .  A
C1411      C1412   1.411   1_565  A
C1412      C1418   1.410       .  A
C1412      C1413   1.415       .  A
C1413      C1415   1.412       .  A
C1413      C1414   1.411       .  A
C1414      C1422   1.405       .  A
C1415      C1424   1.407       .  A
C1415      C1416   1.404       .  A
C1416      C1417   1.401       .  A
C1416      H1427   1.084       .  S
C1417      C1418   1.404       .  A
C1417      H1428   1.083       .  S
C1418      C1419   1.406       .  A
C1419      C1420   1.409   1_545  A
C1419      H1429   1.082       .  S
C1420      C1421   1.407       .  A
C1421      H1430   1.080       .  S
C1422      C1423   1.410       .  A
C1422      H1431   1.084   1_545  S
C1423      C1424   1.409       .  A
C1424      H1432   1.084       .  S
C1433      C1434   1.401       .  A
C1433      C1438   1.404       .  A
C1433      H1449   1.083       .  S
C1434      C1435   1.404       .  A
C1434      H1450   1.084       .  S
C1435      C1445   1.405       .  A
C1435      C1436   1.412   1_565  A
C1436      C1442   1.413       .  A
C1436      C1437   1.412       .  A
C1437      C1439   1.410       .  A
C1437      C1438   1.413   1_545  A
C1438      C1446   1.407       .  A
C1439      C1448   1.400       .  A
C1439      C1440   1.404       .  A
C1440      C1441   1.398       .  A
C1440      H1451   1.084       .  S
C1441      C1442   1.402       .  A
C1441      H1452   1.084       .  S
C1442      C1443   1.402       .  A
C1443      C1444   1.402       .  A
C1443      H1453   1.085       .  S
C1444      C1445   1.404   1_545  A
C1445      H1454   1.085       .  S
C1446      C1447   1.407   1_565  A
C1446      H1455   1.084       .  S
C1447      C1448   1.410       .  A
C1448      H1456   1.084       .  S
C1457      C1458   1.400       .  A
C1457      C1462   1.403       .  A
C1457      H1473   1.084       .  S
C1458      C1459   1.404       .  A
C1458      H1474   1.084       .  S
C1459      C1469   1.402       .  A
C1459      C1460   1.410       .  A
C1460      C1466   1.412   1_545  A
C1460      C1461   1.410       .  A
C1461      C1463   1.411   1_545  A
C1461      C1462   1.414       .  A
C1462      C1470   1.405       .  A
C1463      C1472   1.396       .  A
C1463      C1464   1.402       .  A
C1464      C1465   1.396       .  A
C1464      H1475   1.084       .  S
C1465      C1466   1.402       .  A
C1465      H1476   1.084       .  S
C1466      C1467   1.400       .  A
C1467      C1468   1.406   1_565  A
C1467      H1477   1.084       .  S
C1468      C1469   1.409       .  A
C1469      H1478   1.084       .  S
C1470      C1471   1.402       .  A
C1470      H1479   1.084       .  S
C1471      C1472   1.401   1_545  A
C1472      H1480   1.085       .  S
C1481      C1482   1.399       .  A
C1481      C1486   1.404   1_545  A
C1481      H1497   1.084       .  S
C1482      C1483   1.403       .  A
C1482      H1498   1.084       .  S
C1483      C1493   1.403       .  A
C1483      C1484   1.412   1_545  A
C1484      C1490   1.411       .  A
C1484      C1485   1.414       .  A
C1485      C1487   1.413       .  A
C1485      C1486   1.410       .  A
C1486      C1494   1.402       .  A
C1487      C1496   1.408       .  A
C1487      C1488   1.404       .  A
C1488      C1489   1.401       .  A
C1488      H1499   1.083       .  S
C1489      C1490   1.404       .  A
C1489      H1500   1.084       .  S
C1490      C1491   1.405       .  A
C1491      C1492   1.407   1_565  A
C1491      H1501   1.082       .  S
C1492      C1493   1.405       .  A
C1493      H1502   1.084       .  S
C1494      C1495   1.409       .  A
C1494      H1503   1.084       .  S
C1495      C1496   1.408       .  A
C1496      H1504   1.084       .  S
C1505      C1506   1.401       .  A
C1505      C1510   1.405       .  A
C1505      H1521   1.084       .  S
C1506      C1507   1.404       .  A
C1506      H1522   1.083       .  S
C1507      C1517   1.406       .  A
C1507      C1508   1.414       .  A
C1508      C1514   1.410   1_655  A
C1508      C1509   1.410       .  A
C1509      C1511   1.412   1_655  A
C1509      C1510   1.410       .  A
C1510      C1518   1.403       .  A
C1511      C1520   1.399       .  A
C1511      C1512   1.402       .  A
C1512      C1513   1.395       .  A
C1512      H1523   1.083       .  S
C1513      C1514   1.402       .  A
C1513      H1524   1.084       .  S
C1514      C1515   1.395       .  A
C1515      C1516   1.401   1_455  A
C1515      H1525   1.085       .  S
C1516      C1517   1.404       .  A
C1517      H1526   1.084   1_556  S
C1518      C1519   1.409       .  A
C1518      H1527   1.084       .  S
C1519      C1520   1.406   1_655  A
C1520      H1528   1.084       .  S
C1529      C1530   1.399       .  A
C1529      C1534   1.403       .  A
C1529      H1545   1.084       .  S
C1530      C1531   1.403       .  A
C1530      H1546   1.083       .  S
C1531      C1541   1.403       .  A
C1531      C1532   1.411       .  A
C1532      C1538   1.411   1_455  A
C1532      C1533   1.412       .  A
C1533      C1535   1.411       .  A
C1533      C1534   1.412       .  A
C1534      C1542   1.404       .  A
C1535      C1544   1.402       .  A
C1535      C1536   1.404   1_455  A
C1536      C1537   1.399       .  A
C1536      H1547   1.083       .  S
C1537      C1538   1.403       .  A
C1537      H1548   1.084       .  S
C1538      C1539   1.403       .  A
C1539      C1540   1.406       .  A
C1539      H1549   1.083       .  S
C1540      C1541   1.406   1_655  A
C1541      H1550   1.083       .  S
C1542      C1543   1.407       .  A
C1542      H1551   1.084       .  S
C1543      C1544   1.408       .  A
C1544      H1552   1.084   1_455  S
C1553      C1554   1.396       .  A
C1553      C1558   1.402       .  A
C1553      H1569   1.084       .  S
C1554      C1555   1.403       .  A
C1554      H1570   1.083       .  S
C1555      C1565   1.399       .  A
C1555      C1556   1.409       .  A
C1556      C1562   1.413   1_655  A
C1556      C1557   1.412       .  A
C1557      C1559   1.412   1_655  A
C1557      C1558   1.413       .  A
C1558      C1566   1.400       .  A
C1559      C1568   1.405       .  A
C1559      C1560   1.404       .  A
C1560      C1561   1.401       .  A
C1560      H1571   1.083       .  S
C1561      C1562   1.405       .  A
C1561      H1572   1.084       .  S
C1562      C1563   1.408       .  A
C1563      C1564   1.409   1_455  A
C1563      H1573   1.084       .  S
C1564      C1565   1.409       .  A
C1565      H1574   1.084       .  S
C1566      C1567   1.401       .  A
C1566      H1575   1.085       .  S
C1567      C1568   1.404   1_655  A
C1568      H1576   1.084       .  S
C1577      C1578   1.396       .  A
C1577      C1582   1.402       .  A
C1577      H1593   1.084       .  S
C1578      C1579   1.402       .  A
C1578      H1594   1.083       .  S
C1579      C1589   1.399       .  A
C1579      C1580   1.411   1_655  A
C1580      C1586   1.411       .  A
C1580      C1581   1.412       .  A
C1581      C1583   1.414       .  A
C1581      C1582   1.410   1_455  A
C1582      C1590   1.397       .  A
C1583      C1592   1.410       .  A
C1583      C1584   1.405       .  A
C1584      C1585   1.403       .  A
C1584      H1595   1.083       .  S
C1585      C1586   1.405       .  A
C1585      H1596   1.084       .  S
C1586      C1587   1.407       .  A
C1587      C1588   1.410       .  A
C1587      H1597   1.084       .  S
C1588      C1589   1.407   1_455  A
C1589      H1598   1.084       .  S
C1590      C1591   1.403   1_655  A
C1590      H1599   1.085       .  S
C1591      C1592   1.406       .  A
C1592      H1600   1.084       .  S
C1601      C1602   1.401       .  A
C1601      C1606   1.404   1_455  A
C1601      H1617   1.084       .  S
C1602      C1603   1.404   1_455  A
C1602      H1618   1.083       .  S
C1603      C1613   1.406       .  A
C1603      C1604   1.411       .  A
C1604      C1610   1.412       .  A
C1604      C1605   1.416       .  A
C1605      C1607   1.410       .  A
C1605      C1606   1.412       .  A
C1606      C1614   1.408   1_655  A
C1607      C1616   1.405       .  A
C1607      C1608   1.404       .  A
C1608      C1609   1.401       .  A
C1608      H1619   1.084       .  S
C1609      C1610   1.404       .  A
C1609      H1620   1.084       .  S
C1610      C1611   1.407       .  A
C1611      C1612   1.410       .  A
C1611      H1621   1.084       .  S
C1612      C1613   1.410       .  A
C1613      H1622   1.084       .  S
C1614      C1615   1.408   1_455  A
C1614      H1623   1.082       .  S
C1615      C1616   1.410       .  A
C1616      H1624   1.082       .  S
C1625      C1626   1.399       .  A
C1625      C1630   1.403       .  A
C1625      H1641   1.084       .  S
C1626      C1627   1.404       .  A
C1626      H1642   1.083       .  S
C1627      C1637   1.404       .  A
C1627      C1628   1.411       .  A
C1628      C1634   1.411   1_455  A
C1628      C1629   1.415       .  A
C1629      C1631   1.412   1_455  A
C1629      C1630   1.412       .  A
C1630      C1638   1.404       .  A
C1631      C1640   1.408       .  A
C1631      C1632   1.405       .  A
C1632      C1633   1.402       .  A
C1633      C1634   1.405       .  A
C1633      H1644   1.084       .  S
C1634      C1635   1.408       .  A
C1635      C1636   1.411   1_655  A
C1635      H1645   1.084       .  S
C1636      C1637   1.409       .  A
C1637      H1646   1.084       .  S
C1638      C1639   1.404       .  A
C1638      H1647   1.085       .  S
C1639      C1640   1.407   1_455  A
