geometry optimzed in LAMMPS
_audit_creation_date              2020-12-01 
_audit_creation_method            'lammps2cif' 
_symmetry_space_group_name_H-M    'P1' 
_symmetry_Int_Tables_number       1 
_symmetry_cell_setting            triclinic 
loop_ 
_symmetry_equiv_pos_as_xyz 
  x,y,z 
_cell_length_a                    55.83990458 
_cell_length_b                    55.834540249007425 
_cell_length_c                    43.071049393438884 
_cell_angle_alpha                 90.00052341494154 
_cell_angle_beta                  89.9975726975668 
_cell_angle_gamma                 121.1266184466111 
loop_ 
_atom_site_label 
_atom_site_type_symbol 
_atom_site_fract_x 
_atom_site_fract_y 
_atom_site_fract_z 
_atom_site_charge 
C1          C  0.10984818  0.18952166  0.26959457     0.05900
C2          C  0.12499274  0.21882140  0.26918509    -0.10300
C3          C  0.11645496  0.23340773  0.25012514     0.03400
C4          C  0.09292435  0.21845246  0.23104000    -0.08800
C5          C  0.07832367  0.18916460  0.23056696     0.05900
C6          C  0.08661898  0.17463964  0.25006416    -0.08200
H7          H  0.14300160  0.23026546  0.28425082     0.11500
H8          H  0.08639909  0.22961573  0.21598746     0.09000
H9          H  0.07509705  0.15195403  0.25004085     0.08900
C10         C  0.20845211  0.09096467  0.48040318     0.05900
C11         C  0.23774909  0.10611307  0.48081816    -0.10300
C12         C  0.25233161  0.09757356  0.49988088     0.03400
C13         C  0.23737545  0.07403779  0.01896298    -0.08800
C14         C  0.20809056  0.05943372  0.01943027     0.05900
C15         C  0.19356939  0.06773032  0.99993060    -0.08200
H16         H  0.24919379  0.12412586  0.46575480     0.11500
H17         H  0.24853566  0.06751131  0.03401788     0.09000
H18         H  0.17088611  0.05620562  0.99994963     0.08900
C19         C  0.10985116  0.18952793  0.48040170     0.05900
C20         C  0.08662233  0.17464501  0.99993443    -0.10300
C21         C  0.07832390  0.18916888  0.01943009     0.03400
C22         C  0.09292087  0.21845647  0.01895339    -0.08800
C23         C  0.11645130  0.23341256  0.49986645     0.05900
C24         C  0.12499228  0.21882753  0.48080765    -0.08200
H25         H  0.07510340  0.15195978  0.99996063     0.11500
H26         H  0.08639362  0.22961895  0.03400502     0.09000
H27         H  0.14300114  0.23027236  0.46574084     0.08900
C28         C  0.34646553  0.06108833  0.26966582     0.05900
C29         C  0.36950492  0.06969729  0.25000465    -0.10300
C30         C  0.37811025  0.09273718  0.23034249     0.03400
C31         C  0.36399095  0.10741430  0.23075773    -0.08800
C32         C  0.34062509  0.09857111  0.25000303     0.05900
C33         C  0.33178564  0.07520457  0.26924900    -0.08200
H34         H  0.38065598  0.05854807  0.25000499     0.11500
H35         H  0.37075610  0.12528046  0.21556859     0.09000
H36         H  0.31391944  0.06843609  0.28443725     0.08900
C37         C  0.37811547  0.09274126  0.01966255     0.05900
C38         C  0.36951071  0.06970013  0.00000226    -0.10300
C39         C  0.34647320  0.06109123  0.48034012     0.03400
C40         C  0.33179465  0.07520884  0.48075414    -0.08800
C41         C  0.34063302  0.09857622  0.99999784     0.05900
C42         C  0.36399707  0.10741939  0.01924417    -0.08200
H43         H  0.38066062  0.05854986  0.00000427     0.11500
H44         H  0.31392989  0.06844044  0.46556548     0.09000
H45         H  0.37076163  0.12528656  0.03443162     0.08900
C46         C  0.32551179  0.11369332  0.49999555     0.83000
N47         N  0.33988842  0.14209829  0.50007170    -0.75300
C48         C  0.32598544  0.15611734  0.50006946     0.85400
N49         N  0.29758546  0.14160974  0.49998763    -0.75300
C50         C  0.28308535  0.11320716  0.49990958     0.85500
N51         N  0.29710946  0.09930934  0.49991519    -0.77000
C52         C  0.34820657  0.23075238  0.01957800     0.05900
C53         C  0.33306627  0.20145270  0.01916175    -0.10300
C54         C  0.34161053  0.18687374  0.50009711     0.03400
C55         C  0.36514276  0.20183609  0.48101420    -0.08800
C56         C  0.37973898  0.23112384  0.48054815     0.05900
C57         C  0.37143758  0.24564158  0.50004982    -0.08200
H58         H  0.31505645  0.19000313  0.03422613     0.11500
H59         H  0.37167319  0.19067850  0.46595850     0.09000
H60         H  0.38295659  0.26832711  0.50003225     0.08900
O61         O  0.00740214  0.16939567  0.09382223    -0.69000
O62         O  0.45140149  0.14305682  0.15617172    -0.69200
O63         O  0.00740093  0.16939411  0.15618277    -0.69100
O64         O  0.45140262  0.14305842  0.09383523    -0.69100
O65         O  0.44889255  0.10285771  0.09377413    -0.69100
O66         O  0.00501093  0.12925056  0.15625410    -0.69100
O67         O  0.44889155  0.10285612  0.15623000    -0.69000
O68         O  0.00501205  0.12925203  0.09374774    -0.69200
V69         V  0.47936086  0.15543681  0.12500296     1.35200
V70         V  0.47700203  0.11682436  0.12500158     1.35200
C71         C  0.01561873  0.15378455  0.08319117     0.80200
C72         C  0.44070404  0.11853873  0.16675222     0.80300
C73         C  0.01561730  0.15378256  0.16681181     0.80100
C74         C  0.44070535  0.11854083  0.08325368     0.80100
C75         C  0.11162129  0.35919885  0.23033671     0.05900
C76         C  0.08857946  0.35059527  0.24999250    -0.10300
C77         C  0.07996855  0.32755768  0.26966001     0.03400
C78         C  0.09408502  0.31287759  0.26925572    -0.08800
C79         C  0.11745321  0.32171540  0.25001584     0.05900
C80         C  0.12629820  0.34507972  0.23076455    -0.08200
H81         H  0.07743041  0.36174656  0.24998339     0.11500
H82         H  0.08731509  0.29501250  0.28444840     0.09000
H83         H  0.14416571  0.35184334  0.21557979     0.08900
C84         C  0.13256929  0.30659348  0.25002450     0.83000
N85         N  0.16097145  0.32097276  0.24994976    -0.75300
C86         C  0.17499077  0.30707023  0.24994986     0.85400
N87         N  0.16048593  0.27866745  0.25002678    -0.75300
C88         C  0.13208580  0.26416446  0.25010293     0.85500
N89         N  0.11818783  0.27818847  0.25009992    -0.77000
C90         C  0.24962057  0.32930731  0.23042738     0.05900
C91         C  0.22032381  0.31415858  0.23085182    -0.10300
C92         C  0.20574438  0.32269962  0.24991920     0.03400
C93         C  0.22070356  0.34623676  0.26899749    -0.08800
C94         C  0.24998870  0.36084156  0.26945564     0.05900
C95         C  0.26450667  0.35254345  0.24995070    -0.08200
H96         H  0.20887656  0.29614548  0.21579006     0.11500
H97         H  0.20954561  0.35276501  0.28405455     0.09000
H98         H  0.28718979  0.36406868  0.24996197     0.08900
C99         C  0.20844194  0.09095456  0.26958370     0.05900
C100        C  0.23773880  0.10610497  0.26916792    -0.10300
C101        C  0.25232400  0.09756749  0.25010521     0.03400
C102        C  0.23737060  0.07403174  0.23102352    -0.08800
C103        C  0.20808560  0.05942537  0.23055655     0.05900
C104        C  0.19356169  0.06772006  0.25005663    -0.08200
H105        H  0.24918160  0.12411746  0.28423171     0.11500
H106        H  0.24853319  0.06750684  0.21596901     0.09000
H107        H  0.17087850  0.05619384  0.25003813     0.08900
C108        C  0.32550383  0.11368791  0.25000170     0.83000
N109        N  0.33988047  0.14209283  0.24992412    -0.75300
C110        C  0.32597787  0.15611220  0.24992153     0.85400
N111        N  0.29757776  0.14160459  0.24999969    -0.75300
C112        C  0.28307763  0.11320179  0.25007881     0.85500
N113        N  0.29710164  0.09930394  0.25007833    -0.77000
C114        C  0.34820651  0.23074889  0.23040778     0.05900
C115        C  0.37143799  0.24563698  0.24993357    -0.10300
C116        C  0.37973660  0.23111828  0.26943603     0.03400
C117        C  0.36513699  0.20183040  0.26897308    -0.08800
C118        C  0.34160419  0.18686894  0.24989258     0.05900
C119        C  0.33306283  0.20144913  0.23082726    -0.08200
H120        H  0.38295960  0.26832264  0.24994859     0.11500
H121        H  0.37166546  0.19067206  0.28402905     0.09000
H122        H  0.31505265  0.19000036  0.21576448     0.08900
C123        C  0.11161798  0.35920781  0.01963070     0.05900
C124        C  0.08857874  0.35060449  0.99997285    -0.10300
C125        C  0.07996854  0.32756514  0.48030831     0.03400
C126        C  0.09408349  0.31288333  0.48071790    -0.08800
C127        C  0.11744921  0.32172106  0.49995990     0.05900
C128        C  0.12629298  0.34508680  0.01920777    -0.08200
H129        H  0.07743069  0.36175688  0.99997879     0.11500
H130        H  0.08731435  0.29501706  0.46552818     0.09000
H131        H  0.14415823  0.35185030  0.03439447     0.08900
C132        C  0.13256456  0.30659804  0.49995777     0.83000
N133        N  0.16096682  0.32097690  0.50004170    -0.75300
C134        C  0.17498602  0.30707421  0.50005088     0.85400
N135        N  0.16048097  0.27867165  0.49997331    -0.75300
C136        C  0.13208098  0.26416896  0.49988789     0.85500
N137        N  0.11818283  0.27819294  0.49988236    -0.77000
C138        C  0.24961205  0.32930640  0.01958344     0.05900
C139        C  0.22031511  0.31415940  0.01915702    -0.10300
C140        C  0.20573975  0.32270313  0.50008770     0.03400
C141        C  0.22070306  0.34624096  0.48101063    -0.08800
C142        C  0.24998803  0.36084358  0.48055494     0.05900
C143        C  0.26450205  0.35254315  0.50006092    -0.08200
H144        H  0.20886484  0.29614542  0.03421738     0.11500
H145        H  0.20954842  0.35277105  0.46595142     0.09000
H146        H  0.28718561  0.36406721  0.50005075     0.08900
O147        O  0.33633256  0.49029150  0.34377417    -0.69000
O148        O  0.30992133  0.43416572  0.40625553    -0.69200
O149        O  0.30991897  0.43416533  0.34374983    -0.69100
O150        O  0.33633506  0.49029172  0.40622988    -0.69100
O151        O  0.29614754  0.48780139  0.40617468    -0.69100
O152        O  0.26978853  0.43179463  0.34382691    -0.69100
O153        O  0.26979100  0.43179521  0.40618716    -0.69000
O154        O  0.29614494  0.48780090  0.34383840    -0.69200
V155        V  0.32235696  0.46217874  0.37500240     1.35200
V156        V  0.28375717  0.45983866  0.37500670     1.35200
C157        C  0.32065899  0.49848958  0.33325509     0.80200
C158        C  0.28539274  0.42356748  0.41681441     0.80300
C159        C  0.28538957  0.42356677  0.33319552     0.80100
C160        C  0.32066244  0.49849005  0.41675338     0.80100
O161        O  0.33722332  0.29073240  0.09375242    -0.69000
O162        O  0.30960094  0.31834453  0.15623989    -0.69200
O163        O  0.33722657  0.29073239  0.15623472    -0.69100
O164        O  0.30959706  0.31834388  0.09375732    -0.69100
O165        O  0.26999139  0.27867721  0.09381676    -0.69100
O166        O  0.29757119  0.25111532  0.15618282    -0.69100
O167        O  0.26999512  0.27867809  0.15618821    -0.69000
O168        O  0.29756818  0.25111505  0.09381153    -0.69200
V169        V  0.32264980  0.30377594  0.12499616     1.35200
V170        V  0.28456010  0.26567529  0.12499972     1.35200
C171        C  0.32201147  0.26626300  0.08320082     0.80200
C172        C  0.28513582  0.30312517  0.16679567     0.80300
C173        C  0.32201546  0.26626314  0.16678838     0.80100
C174        C  0.28513050  0.30312410  0.08320736     0.80100
O175        O  0.18830143  0.48848964  0.09380819    -0.69000
O176        O  0.16194714  0.43247935  0.15615238    -0.69200
O177        O  0.16194654  0.43248384  0.09381523    -0.69100
O178        O  0.18830173  0.48848549  0.15616911    -0.69100
O179        O  0.14817049  0.48611300  0.15624617    -0.69100
O180        O  0.12175838  0.42999211  0.09376071    -0.69100
O181        O  0.12175895  0.42998759  0.15621674    -0.69000
O182        O  0.14817023  0.48611740  0.09374021    -0.69200
V183        V  0.17433512  0.46044390  0.12498637     1.35200
V184        V  0.13573463  0.45810236  0.12499089     1.35200
C185        C  0.17269889  0.49671653  0.08318117     0.80200
C186        C  0.13743304  0.42179010  0.16673576     0.80300
C187        C  0.13743210  0.42179600  0.08323520     0.80100
C188        C  0.17269925  0.49671104  0.16680207     0.80100
O189        O  0.00666990  0.27724813  0.40615434    -0.69000
O190        O  0.45066957  0.25090585  0.34380925    -0.69200
O191        O  0.00666931  0.27724562  0.34381864    -0.69100
O192        O  0.45066999  0.25090838  0.40616932    -0.69100
O193        O  0.45305771  0.29105085  0.40624024    -0.69100
O194        O  0.00917717  0.31744531  0.34375659    -0.69100
O195        O  0.45305718  0.29104827  0.34373417    -0.69200
O196        O  0.00917805  0.31744799  0.40621216    -0.69200
V197        V  0.47871056  0.26486645  0.37498785     1.35200
V198        V  0.48106730  0.30347794  0.37498587     1.35200
C199        C  0.01736720  0.30176659  0.41673319     0.80200
C200        C  0.44245122  0.26651541  0.33317916     0.80300
C201        C  0.01736607  0.30176309  0.33323669     0.80100
C202        C  0.44245189  0.26651888  0.41679820     0.80100
O203        O  0.18805870  0.14158544  0.34380748    -0.69000
O204        O  0.16048688  0.16915253  0.40618087    -0.69200
O205        O  0.18806291  0.14158960  0.40617868    -0.69100
O206        O  0.16048306  0.16914884  0.34380980    -0.69100
O207        O  0.12082747  0.12953213  0.34375991    -0.69100
O208        O  0.14845692  0.10192327  0.40624016    -0.69100
O209        O  0.12083148  0.12953570  0.40624205    -0.69000
O210        O  0.14845253  0.10191922  0.34375781    -0.69200
V211        V  0.17349420  0.15459019  0.37499433     1.35200
V212        V  0.13540425  0.11648991  0.37499989     1.35200
C213        C  0.17291780  0.11713764  0.33320193     0.80200
C214        C  0.13604359  0.15400563  0.41679186     0.80300
C215        C  0.17292369  0.11714315  0.41678928     0.80100
C216        C  0.13603851  0.15400081  0.33320501     0.80100
C217        C  0.26479099  0.38388340  0.45937410    -0.10500
C218        C  0.27516715  0.40234732  0.44033906    -0.12100
C219        C  0.26408742  0.32116373  0.04075462    -0.10500
C220        C  0.27448754  0.31340488  0.05973484    -0.12100
C221        C  0.12757075  0.40049392  0.05984014    -0.10500
C222        C  0.11996797  0.38206579  0.04090134    -0.12100
C223        C  0.05710710  0.31922081  0.45904810    -0.10500
C224        C  0.03867426  0.31162399  0.44011924    -0.12100
C225        C  0.40277195  0.24591920  0.29061971    -0.10500
C226        C  0.42123319  0.25629353  0.30965524    -0.12100
C227        C  0.34006471  0.24522805  0.20923986    -0.10500
C228        C  0.33230294  0.25562656  0.19026053    -0.12100
C229        C  0.18355752  0.10685351  0.30972818    -0.10500
C230        C  0.19395791  0.09909298  0.29074901    -0.12100
C231        C  0.19329300  0.03638875  0.20936940    -0.10500
C232        C  0.18292331  0.01792830  0.19033005    -0.12100
C233        C  0.26478788  0.38388168  0.29063700    -0.10500
C234        C  0.27516257  0.40234589  0.30967159    -0.12100
C235        C  0.26409867  0.32116697  0.20925559    -0.10500
C236        C  0.27449659  0.31340712  0.19027244    -0.12100
C237        C  0.11997183  0.38205592  0.20906468    -0.10500
C238        C  0.12757290  0.40048492  0.19012718    -0.12100
C239        C  0.05710559  0.31921431  0.29091907    -0.10500
C240        C  0.03867239  0.31161855  0.30984862    -0.12100
C241        C  0.40277362  0.24592543  0.45936190    -0.10500
C242        C  0.42123433  0.25629907  0.44032415    -0.12100
C243        C  0.34006176  0.24523004  0.04074546    -0.10500
C244        C  0.33229785  0.25562662  0.05972580    -0.12100
C245        C  0.40097292  0.10108915  0.04092966    -0.10500
C246        C  0.41940192  0.10868651  0.05986360    -0.12100
C247        C  0.33052561  0.01979670  0.44014334    -0.10500
C248        C  0.33812718  0.03822917  0.45907639    -0.12100
C249        C  0.41939961  0.10868307  0.19014264    -0.10500
C250        C  0.40096949  0.10108522  0.20907658    -0.12100
C251        C  0.33811953  0.03822768  0.29093123    -0.10500
C252        C  0.33051991  0.01979590  0.30986488    -0.12100
C253        C  0.03683477  0.16400361  0.05966341    -0.10500
C254        C  0.05529270  0.17437370  0.04062212    -0.12100
C255        C  0.12575710  0.16464394  0.44026437    -0.10500
C256        C  0.11799374  0.17504392  0.45924093    -0.12100
C257        C  0.19396987  0.09910420  0.45923855    -0.10500
C258        C  0.18356704  0.10686240  0.44026119    -0.12100
C259        C  0.19329493  0.03639731  0.04061722    -0.10500
C260        C  0.18292298  0.01793588  0.05965552    -0.12100
C261        C  0.05529151  0.17437029  0.20937752    -0.10500
C262        C  0.03683307  0.16400075  0.19033823    -0.12100
C263        C  0.12574997  0.16463678  0.30973345    -0.10500
C264        C  0.11798768  0.17503679  0.29075673    -0.12100
C265        C  0.10984809  0.18952171  0.76959463     0.05900
C266        C  0.12499278  0.21882144  0.76918507    -0.10300
C267        C  0.11645495  0.23340779  0.75012521     0.03400
C268        C  0.09292438  0.21845259  0.73104001    -0.08800
C269        C  0.07832365  0.18916472  0.73056695     0.05900
C270        C  0.08661894  0.17463974  0.75006413    -0.08200
H271        H  0.14300140  0.23026548  0.78425120     0.11500
H272        H  0.08639917  0.22961604  0.71598745     0.09000
H273        H  0.07509697  0.15195415  0.75004105     0.08900
C274        C  0.20845216  0.09096467  0.98040320     0.05900
C275        C  0.23774908  0.10611307  0.98081811    -0.10300
C276        C  0.25233165  0.09757353  0.99988091     0.03400
C277        C  0.23737534  0.07403782  0.51896276    -0.08800
C278        C  0.20809041  0.05943378  0.51943015     0.05900
C279        C  0.19356926  0.06773035  0.49993048    -0.08200
H280        H  0.24919385  0.12412590  0.96575437     0.11500
H281        H  0.24853533  0.06751136  0.53401725     0.09000
H282        H  0.17088597  0.05620572  0.49994955     0.08900
C283        C  0.10985114  0.18952799  0.98040174     0.05900
C284        C  0.08662231  0.17464501  0.49993439    -0.10300
C285        C  0.07832392  0.18916895  0.51943011     0.03400
C286        C  0.09292087  0.21845651  0.51895345    -0.08800
C287        C  0.11645124  0.23341261  0.99986633     0.05900
C288        C  0.12499227  0.21882761  0.98080769    -0.08200
H289        H  0.07510317  0.15195981  0.49996059     0.11500
H290        H  0.08639394  0.22961906  0.53400557     0.09000
H291        H  0.14300107  0.23027243  0.96574079     0.08900
C292        C  0.34646543  0.06108844  0.76966590     0.05900
C293        C  0.36950486  0.06969738  0.75000469    -0.10300
C294        C  0.37811029  0.09273736  0.73034241     0.03400
C295        C  0.36399104  0.10741450  0.73075763    -0.08800
C296        C  0.34062508  0.09857125  0.75000291     0.05900
C297        C  0.33178558  0.07520475  0.76924908    -0.08200
H298        H  0.38065592  0.05854817  0.75000528     0.11500
H299        H  0.37075631  0.12528104  0.71556800     0.09000
H300        H  0.31391909  0.06843623  0.78443735     0.08900
C301        C  0.37811546  0.09274130  0.51966264     0.05900
C302        C  0.36951074  0.06970017  0.50000224    -0.10300
C303        C  0.34647323  0.06109124  0.98034002     0.03400
C304        C  0.33179460  0.07520875  0.98075408    -0.08800
C305        C  0.34063301  0.09857628  0.49999809     0.05900
C306        C  0.36399712  0.10741952  0.51924425    -0.08200
H307        H  0.38066074  0.05854997  0.50000401     0.11500
H308        H  0.31393014  0.06844069  0.96556484     0.09000
H309        H  0.37076141  0.12528662  0.53443221     0.08900
C310        C  0.32551179  0.11369327  0.99999552     0.83000
N311        N  0.33988841  0.14209824  0.00007173    -0.75300
C312        C  0.32598546  0.15611734  0.00006936     0.85400
N313        N  0.29758550  0.14160978  0.99998766    -0.75300
C314        C  0.28308537  0.11320718  0.99990954     0.85500
N315        N  0.29710944  0.09930932  0.99991512    -0.77000
C316        C  0.34820656  0.23075236  0.51957800     0.05900
C317        C  0.33306625  0.20145269  0.51916163    -0.10300
C318        C  0.34161043  0.18687377  0.00009718     0.03400
C319        C  0.36514263  0.20183615  0.98101434    -0.08800
C320        C  0.37973893  0.23112390  0.98054822     0.05900
C321        C  0.37143758  0.24564161  0.00004984    -0.08200
H322        H  0.31505638  0.19000311  0.53422591     0.11500
H323        H  0.37167271  0.19067857  0.96595856     0.09000
H324        H  0.38295649  0.26832715  0.00003202     0.08900
O325        O  0.00740210  0.16939568  0.59382220    -0.69000
O326        O  0.45140140  0.14305671  0.65617186    -0.69200
O327        O  0.00740087  0.16939406  0.65618280    -0.69100
O328        O  0.45140261  0.14305842  0.59383535    -0.69100
O329        O  0.44889255  0.10285772  0.59377414    -0.69100
O330        O  0.00501097  0.12925062  0.65625407    -0.69100
O331        O  0.44889151  0.10285604  0.65622996    -0.69000
O332        O  0.00501196  0.12925214  0.59374774    -0.69200
V333        V  0.47936086  0.15543679  0.62500301     1.35200
V334        V  0.47700201  0.11682440  0.62500152     1.35200
C335        C  0.01561880  0.15378467  0.58319127     0.80200
C336        C  0.44070400  0.11853863  0.66675233     0.80300
C337        C  0.01561735  0.15378260  0.66681179     0.80100
C338        C  0.44070531  0.11854083  0.58325374     0.80100
C339        C  0.11162114  0.35919877  0.73033667     0.05900
C340        C  0.08857939  0.35059525  0.74999252    -0.10300
C341        C  0.07996853  0.32755771  0.76966000     0.03400
C342        C  0.09408493  0.31287760  0.76925567    -0.08800
C343        C  0.11745311  0.32171541  0.75001578     0.05900
C344        C  0.12629813  0.34507975  0.73076452    -0.08200
H345        H  0.07742995  0.36174624  0.74998312     0.11500
H346        H  0.08731500  0.29501256  0.78444851     0.09000
H347        H  0.14416536  0.35184325  0.71557951     0.08900
C348        C  0.13256931  0.30659357  0.75002439     0.83000
N349        N  0.16097150  0.32097285  0.74994984    -0.75300
C350        C  0.17499081  0.30707029  0.74994997     0.85400
N351        N  0.16048593  0.27866748  0.75002688    -0.75300
C352        C  0.13208582  0.26416451  0.75010295     0.85500
N353        N  0.11818787  0.27818855  0.75009994    -0.77000
C354        C  0.24962076  0.32930744  0.73042736     0.05900
C355        C  0.22032388  0.31415872  0.73085178    -0.10300
C356        C  0.20574450  0.32269965  0.74991933     0.03400
C357        C  0.22070379  0.34623690  0.76899742    -0.08800
C358        C  0.24998900  0.36084170  0.76945558     0.05900
C359        C  0.26450695  0.35254367  0.74995056    -0.08200
H360        H  0.20887657  0.29614542  0.71579021     0.11500
H361        H  0.20954590  0.35276506  0.78405471     0.09000
H362        H  0.28719058  0.36406925  0.74996169     0.08900
C363        C  0.20844175  0.09095445  0.76958356     0.05900
C364        C  0.23773870  0.10610482  0.76916776    -0.10300
C365        C  0.25232395  0.09756737  0.75010513     0.03400
C366        C  0.23737056  0.07403170  0.73102347    -0.08800
C367        C  0.20808550  0.05942531  0.73055652     0.05900
C368        C  0.19356147  0.06771995  0.75005653    -0.08200
H369        H  0.24918144  0.12411732  0.78423115     0.11500
H370        H  0.24853309  0.06750668  0.71596910     0.09000
H371        H  0.17087812  0.05619354  0.75003799     0.08900
C372        C  0.32550381  0.11368789  0.75000176     0.83000
N373        N  0.33988046  0.14209279  0.74992407    -0.75300
C374        C  0.32597785  0.15611216  0.74992149     0.85400
N375        N  0.29757772  0.14160459  0.74999960    -0.75300
C376        C  0.28307761  0.11320177  0.75007881     0.85500
N377        N  0.29710163  0.09930393  0.75007830    -0.77000
C378        C  0.34820644  0.23074878  0.73040762     0.05900
C379        C  0.37143790  0.24563692  0.74993348    -0.10300
C380        C  0.37973654  0.23111829  0.76943600     0.03400
C381        C  0.36513687  0.20183039  0.76897307    -0.08800
C382        C  0.34160409  0.18686888  0.74989239     0.05900
C383        C  0.33306266  0.20144903  0.73082714    -0.08200
H384        H  0.38295938  0.26832260  0.74994849     0.11500
H385        H  0.37166522  0.19067208  0.78402911     0.09000
H386        H  0.31505262  0.19000022  0.71576375     0.08900
C387        C  0.11161804  0.35920786  0.51963069     0.05900
C388        C  0.08857873  0.35060446  0.49997287    -0.10300
C389        C  0.07996854  0.32756513  0.98030826     0.03400
C390        C  0.09408352  0.31288331  0.98071779    -0.08800
C391        C  0.11744921  0.32172099  0.99995983     0.05900
C392        C  0.12629305  0.34508686  0.51920779    -0.08200
H393        H  0.07743085  0.36175692  0.49997850     0.11500
H394        H  0.08731443  0.29501702  0.96552766     0.09000
H395        H  0.14415820  0.35185011  0.53439452     0.08900
C396        C  0.13256460  0.30659807  0.99995782     0.83000
N397        N  0.16096684  0.32097691  0.00004167    -0.75300
C398        C  0.17498600  0.30707419  0.00005079     0.85400
N399        N  0.16048095  0.27867164  0.99997334    -0.75300
C400        C  0.13208098  0.26416900  0.99988803     0.85500
N401        N  0.11818288  0.27819299  0.99988232    -0.77000
C402        C  0.24961220  0.32930649  0.51958333     0.05900
C403        C  0.22031523  0.31415951  0.51915694    -0.10300
C404        C  0.20573969  0.32270297  0.00008786     0.03400
C405        C  0.22070304  0.34624074  0.98101074    -0.08800
C406        C  0.24998800  0.36084351  0.98055505     0.05900
C407        C  0.26450195  0.35254304  0.00006098    -0.08200
H408        H  0.20886501  0.29614548  0.53421723     0.11500
H409        H  0.20954850  0.35277045  0.96595152     0.09000
H410        H  0.28718513  0.36406718  0.00005129     0.08900
O411        O  0.33633263  0.49029149  0.84377419    -0.69000
O412        O  0.30992132  0.43416567  0.90625547    -0.69200
O413        O  0.30991897  0.43416537  0.84374978    -0.69100
O414        O  0.33633502  0.49029164  0.90622983    -0.69100
O415        O  0.29614759  0.48780136  0.90617478    -0.69100
O416        O  0.26978859  0.43179461  0.84382698    -0.69100
O417        O  0.26979098  0.43179518  0.90618725    -0.69000
O418        O  0.29614495  0.48780093  0.84383839    -0.69200
V419        V  0.32235695  0.46217870  0.87500238     1.35200
V420        V  0.28375717  0.45983866  0.87500675     1.35200
C421        C  0.32065899  0.49848952  0.83325505     0.80200
C422        C  0.28539274  0.42356747  0.91681440     0.80300
C423        C  0.28538962  0.42356680  0.83319549     0.80100
C424        C  0.32066249  0.49849002  0.91675340     0.80100
O425        O  0.33722333  0.29073235  0.59375241    -0.69000
O426        O  0.30960088  0.31834450  0.65623997    -0.69200
O427        O  0.33722650  0.29073236  0.65623478    -0.69100
O428        O  0.30959701  0.31834386  0.59375735    -0.69100
O429        O  0.26999134  0.27867718  0.59381669    -0.69100
O430        O  0.29757116  0.25111537  0.65618266    -0.69100
O431        O  0.26999505  0.27867806  0.65618820    -0.69000
O432        O  0.29756817  0.25111505  0.59381150    -0.69200
V433        V  0.32264977  0.30377591  0.62499618     1.35200
V434        V  0.28456007  0.26567530  0.62499967     1.35200
C435        C  0.32201145  0.26626300  0.58320075     0.80200
C436        C  0.28513573  0.30312515  0.66679566     0.80300
C437        C  0.32201539  0.26626314  0.66678838     0.80100
C438        C  0.28513046  0.30312409  0.58320734     0.80100
O439        O  0.18830136  0.48848955  0.59380819    -0.69000
O440        O  0.16194733  0.43247953  0.65615244    -0.69200
O441        O  0.16194653  0.43248375  0.59381529    -0.69100
O442        O  0.18830166  0.48848546  0.65616913    -0.69100
O443        O  0.14817042  0.48611296  0.65624614    -0.69100
O444        O  0.12175844  0.42999213  0.59376070    -0.69100
O445        O  0.12175906  0.42998759  0.65621675    -0.69000
O446        O  0.14817021  0.48611737  0.59374016    -0.69200
V447        V  0.17433512  0.46044392  0.62498637     1.35200
V448        V  0.13573465  0.45810236  0.62499089     1.35200
C449        C  0.17269887  0.49671650  0.58318117     0.80200
C450        C  0.13743312  0.42179004  0.66673564     0.80300
C451        C  0.13743213  0.42179595  0.58323521     0.80100
C452        C  0.17269923  0.49671113  0.66680191     0.80100
O453        O  0.00666993  0.27724812  0.90615423    -0.69000
O454        O  0.45066946  0.25090578  0.84380919    -0.69200
O455        O  0.00666922  0.27724553  0.84381854    -0.69100
O456        O  0.45066999  0.25090839  0.90616925    -0.69100
O457        O  0.45305763  0.29105082  0.90624028    -0.69100
O458        O  0.00917728  0.31744532  0.84375668    -0.69100
O459        O  0.45305719  0.29104824  0.84373424    -0.69200
O460        O  0.00917802  0.31744798  0.90621215    -0.69200
V461        V  0.47871049  0.26486641  0.87498775     1.35200
V462        V  0.48106726  0.30347790  0.87498588     1.35200
C463        C  0.01736720  0.30176659  0.91673312     0.80200
C464        C  0.44245121  0.26651539  0.83317916     0.80300
C465        C  0.01736612  0.30176307  0.83323670     0.80100
C466        C  0.44245187  0.26651886  0.91679821     0.80100
O467        O  0.18805862  0.14158540  0.84380753    -0.69000
O468        O  0.16048693  0.16915260  0.90618101    -0.69200
O469        O  0.18806288  0.14158960  0.90617883    -0.69100
O470        O  0.16048309  0.16914886  0.84380980    -0.69100
O471        O  0.12082743  0.12953205  0.84375995    -0.69100
O472        O  0.14845685  0.10192328  0.90624023    -0.69100
O473        O  0.12083147  0.12953566  0.90624211    -0.69000
O474        O  0.14845244  0.10191917  0.84375787    -0.69200
V475        V  0.17349422  0.15459024  0.87499441     1.35200
V476        V  0.13540421  0.11648989  0.87499993     1.35200
C477        C  0.17291777  0.11713753  0.83320213     0.80200
C478        C  0.13604358  0.15400566  0.91679187     0.80300
C479        C  0.17292364  0.11714313  0.91678933     0.80100
C480        C  0.13603844  0.15400083  0.83320519     0.80100
C481        C  0.26479105  0.38388345  0.95937408    -0.10500
C482        C  0.27516717  0.40234742  0.94033906    -0.12100
C483        C  0.26408740  0.32116367  0.54075455    -0.10500
C484        C  0.27448751  0.31340491  0.55973486    -0.12100
C485        C  0.12757078  0.40049382  0.55984019    -0.10500
C486        C  0.11996791  0.38206575  0.54090132    -0.12100
C487        C  0.05710715  0.31922082  0.95904803    -0.10500
C488        C  0.03867430  0.31162401  0.94011917    -0.12100
C489        C  0.40277200  0.24591920  0.79061969    -0.10500
C490        C  0.42123324  0.25629351  0.80965524    -0.12100
C491        C  0.34006471  0.24522802  0.70923985    -0.10500
C492        C  0.33230299  0.25562657  0.69026051    -0.12100
C493        C  0.18355742  0.10685353  0.80972817    -0.10500
C494        C  0.19395791  0.09909297  0.79074914    -0.12100
C495        C  0.19329303  0.03638879  0.70936926    -0.10500
C496        C  0.18292324  0.01792828  0.69032999    -0.12100
C497        C  0.26478790  0.38388176  0.79063699    -0.10500
C498        C  0.27516265  0.40234595  0.80967157    -0.12100
C499        C  0.26409865  0.32116702  0.70925549    -0.10500
C500        C  0.27449648  0.31340709  0.69027236    -0.12100
C501        C  0.11997183  0.38205590  0.70906467    -0.10500
C502        C  0.12757291  0.40048494  0.69012722    -0.12100
C503        C  0.05710569  0.31921430  0.79091906    -0.10500
C504        C  0.03867244  0.31161858  0.80984853    -0.12100
C505        C  0.40277352  0.24592536  0.95936180    -0.10500
C506        C  0.42123431  0.25629905  0.94032414    -0.12100
C507        C  0.34006164  0.24523000  0.54074546    -0.10500
C508        C  0.33229789  0.25562666  0.55972587    -0.12100
C509        C  0.40097284  0.10108908  0.54092965    -0.10500
C510        C  0.41940185  0.10868650  0.55986359    -0.12100
C511        C  0.33052566  0.01979671  0.94014337    -0.10500
C512        C  0.33812715  0.03822914  0.95907645    -0.12100
C513        C  0.41939961  0.10868305  0.69014277    -0.10500
C514        C  0.40096947  0.10108519  0.70907664    -0.12100
C515        C  0.33811946  0.03822766  0.79093124    -0.10500
C516        C  0.33051991  0.01979590  0.80986494    -0.12100
C517        C  0.03683471  0.16400364  0.55966335    -0.10500
C518        C  0.05529275  0.17437382  0.54062219    -0.12100
C519        C  0.12575718  0.16464399  0.94026442    -0.10500
C520        C  0.11799380  0.17504398  0.95924099    -0.12100
C521        C  0.19396986  0.09910420  0.95923856    -0.10500
C522        C  0.18356699  0.10686243  0.94026126    -0.12100
C523        C  0.19329500  0.03639725  0.54061716    -0.10500
C524        C  0.18292294  0.01793588  0.55965558    -0.12100
C525        C  0.05529153  0.17437030  0.70937759    -0.10500
C526        C  0.03683318  0.16400085  0.69033822    -0.12100
C527        C  0.12575003  0.16463680  0.80973347    -0.10500
C528        C  0.11798769  0.17503677  0.79075670    -0.12100
C529        C  0.10984824  0.68952175  0.26959451     0.05900
C530        C  0.12499282  0.71882143  0.26918509    -0.10300
C531        C  0.11645513  0.73340776  0.25012514     0.03400
C532        C  0.09292447  0.71845249  0.23104018    -0.08800
C533        C  0.07832378  0.68916468  0.23056704     0.05900
C534        C  0.08661906  0.67463977  0.25006419    -0.08200
H535        H  0.14300159  0.73026532  0.28425073     0.11500
H536        H  0.08639948  0.72961566  0.21598766     0.09000
H537        H  0.07509748  0.65195447  0.25004077     0.08900
C538        C  0.20845205  0.59096457  0.48040316     0.05900
C539        C  0.23774901  0.60611303  0.48081829    -0.10300
C540        C  0.25233156  0.59757349  0.49988098     0.03400
C541        C  0.23737554  0.57403788  0.01896287    -0.08800
C542        C  0.20809064  0.55943379  0.01943024     0.05900
C543        C  0.19356943  0.56773034  0.99993058    -0.08200
H544        H  0.24919385  0.62412579  0.46575478     0.11500
H545        H  0.24853583  0.56751163  0.03401782     0.09000
H546        H  0.17088624  0.55620568  0.99994964     0.08900
C547        C  0.10985119  0.68952791  0.48040174     0.05900
C548        C  0.08662240  0.67464506  0.99993431    -0.10300
C549        C  0.07832395  0.68916897  0.01943001     0.03400
C550        C  0.09292099  0.71845656  0.01895341    -0.08800
C551        C  0.11645131  0.73341261  0.49986641     0.05900
C552        C  0.12499234  0.71882757  0.48080768    -0.08200
H553        H  0.07510344  0.65195992  0.99996040     0.11500
H554        H  0.08639373  0.72961909  0.03400515     0.09000
H555        H  0.14300154  0.73027245  0.46574082     0.08900
C556        C  0.34646547  0.56108841  0.26966580     0.05900
C557        C  0.36950484  0.56969742  0.25000454    -0.10300
C558        C  0.37811020  0.59273727  0.23034237     0.03400
C559        C  0.36399099  0.60741438  0.23075770    -0.08800
C560        C  0.34062513  0.59857119  0.25000303     0.05900
C561        C  0.33178562  0.57520468  0.26924902    -0.08200
H562        H  0.38065567  0.55854820  0.25000465     0.11500
H563        H  0.37075613  0.62528049  0.21556859     0.09000
H564        H  0.31391965  0.56843650  0.28443735     0.08900
C565        C  0.37811551  0.59274117  0.01966255     0.05900
C566        C  0.36951082  0.56970008  0.00000226    -0.10300
C567        C  0.34647349  0.56109127  0.48034021     0.03400
C568        C  0.33179485  0.57520885  0.48075429    -0.08800
C569        C  0.34063298  0.59857616  0.99999779     0.05900
C570        C  0.36399704  0.60741931  0.01924413    -0.08200
H571        H  0.38066102  0.55854976  0.00000419     0.11500
H572        H  0.31393043  0.56844054  0.46556562     0.09000
H573        H  0.37076141  0.62528641  0.03443162     0.08900
C574        C  0.32551182  0.61369330  0.49999551     0.83000
N575        N  0.33988844  0.64209829  0.50007169    -0.75300
C576        C  0.32598541  0.65611733  0.50006946     0.85400
N577        N  0.29758543  0.64160974  0.49998766    -0.75300
C578        C  0.28308532  0.61320716  0.49990965     0.85500
N579        N  0.29710946  0.59930935  0.49991520    -0.77000
C580        C  0.34820636  0.73075222  0.01957810     0.05900
C581        C  0.33306617  0.70145263  0.01916186    -0.10300
C582        C  0.34161027  0.68687373  0.50009733     0.03400
C583        C  0.36514263  0.70183614  0.48101437    -0.08800
C584        C  0.37973891  0.73112389  0.48054824     0.05900
C585        C  0.37143747  0.74564151  0.50004989    -0.08200
H586        H  0.31505588  0.69000279  0.03422627     0.11500
H587        H  0.37167277  0.69067856  0.46595874     0.09000
H588        H  0.38295633  0.76832708  0.50003220     0.08900
O589        O  0.00740216  0.66939564  0.09382222    -0.69000
O590        O  0.45140136  0.64305667  0.15617178    -0.69200
O591        O  0.00740086  0.66939396  0.15618277    -0.69100
O592        O  0.45140252  0.64305836  0.09383527    -0.69100
O593        O  0.44889252  0.60285775  0.09377420    -0.69100
O594        O  0.00501090  0.62925050  0.15625412    -0.69100
O595        O  0.44889152  0.60285603  0.15623008    -0.69000
O596        O  0.00501195  0.62925199  0.09374774    -0.69200
V597        V  0.47936079  0.65543675  0.12500297     1.35200
V598        V  0.47700200  0.61682435  0.12500157     1.35200
C599        C  0.01561875  0.65378455  0.08319121     0.80200
C600        C  0.44070396  0.61853860  0.16675230     0.80300
C601        C  0.01561734  0.65378250  0.16681175     0.80100
C602        C  0.44070531  0.61854082  0.08325367     0.80100
C603        C  0.11162142  0.85919889  0.23033672     0.05900
C604        C  0.08857954  0.85059528  0.24999247    -0.10300
C605        C  0.07996862  0.82755772  0.26966007     0.03400
C606        C  0.09408502  0.81287758  0.26925572    -0.08800
C607        C  0.11745323  0.82171539  0.25001573     0.05900
C608        C  0.12629826  0.84507974  0.23076446    -0.08200
H609        H  0.07743060  0.86174657  0.24998339     0.11500
H610        H  0.08731506  0.79501248  0.28444848     0.09000
H611        H  0.14416597  0.85184359  0.21557973     0.08900
C612        C  0.13256936  0.80659352  0.25002447     0.83000
N613        N  0.16097153  0.82097274  0.24994975    -0.75300
C614        C  0.17499081  0.80707020  0.24994988     0.85400
N615        N  0.16048592  0.77866742  0.25002679    -0.75300
C616        C  0.13208581  0.76416449  0.25010297     0.85500
N617        N  0.11818786  0.77818853  0.25009992    -0.77000
C618        C  0.24962065  0.82930742  0.23042741     0.05900
C619        C  0.22032387  0.81415869  0.23085183    -0.10300
C620        C  0.20574443  0.82269974  0.24991918     0.03400
C621        C  0.22070367  0.84623689  0.26899750    -0.08800
C622        C  0.24998879  0.86084164  0.26945565     0.05900
C623        C  0.26450678  0.85254356  0.24995076    -0.08200
H624        H  0.20887665  0.79614561  0.21579001     0.11500
H625        H  0.20954582  0.85276542  0.28405460     0.09000
H626        H  0.28719009  0.86406901  0.24996209     0.08900
C627        C  0.20844191  0.59095456  0.26958371     0.05900
C628        C  0.23773871  0.60610495  0.26916797    -0.10300
C629        C  0.25232388  0.59756750  0.25010530     0.03400
C630        C  0.23737046  0.57403174  0.23102360    -0.08800
C631        C  0.20808552  0.55942537  0.23055659     0.05900
C632        C  0.19356167  0.56772009  0.25005657    -0.08200
H633        H  0.24918143  0.62411735  0.28423183     0.11500
H634        H  0.24853285  0.56750688  0.21596914     0.09000
H635        H  0.17087851  0.55619382  0.25003805     0.08900
C636        C  0.32550388  0.61368797  0.25000173     0.83000
N637        N  0.33988056  0.64209285  0.24992413    -0.75300
C638        C  0.32597791  0.65611220  0.24992155     0.85400
N639        N  0.29757774  0.64160462  0.24999969    -0.75300
C640        C  0.28307758  0.61320184  0.25007880     0.85500
N641        N  0.29710163  0.59930403  0.25007833    -0.77000
C642        C  0.34820630  0.73074870  0.23040770     0.05900
C643        C  0.37143783  0.74563683  0.24993344    -0.10300
C644        C  0.37973645  0.73111820  0.26943601     0.03400
C645        C  0.36513690  0.70183039  0.26897302    -0.08800
C646        C  0.34160409  0.68686889  0.24989249     0.05900
C647        C  0.33306267  0.70144899  0.23082713    -0.08200
H648        H  0.38295894  0.76832208  0.24994863     0.11500
H649        H  0.37166510  0.69067213  0.28402903     0.09000
H650        H  0.31505253  0.69000019  0.21576428     0.08900
C651        C  0.11161802  0.85920783  0.01963072     0.05900
C652        C  0.08857874  0.85060445  0.99997287    -0.10300
C653        C  0.07996856  0.82756496  0.48030825     0.03400
C654        C  0.09408347  0.81288319  0.48071779    -0.08800
C655        C  0.11744918  0.82172095  0.49995987     0.05900
C656        C  0.12629300  0.84508674  0.01920783    -0.08200
H657        H  0.07743069  0.86175684  0.99997872     0.11500
H658        H  0.08731398  0.79501644  0.46552819     0.09000
H659        H  0.14415827  0.85185015  0.03439448     0.08900
C660        C  0.13256457  0.80659803  0.49995775     0.83000
N661        N  0.16096679  0.82097686  0.50004169    -0.75300
C662        C  0.17498596  0.80707413  0.50005085     0.85400
N663        N  0.16048094  0.77867158  0.49997331    -0.75300
C664        C  0.13208099  0.76416897  0.49988788     0.85500
N665        N  0.11818291  0.77819297  0.49988235    -0.77000
C666        C  0.24961201  0.82930626  0.01958343     0.05900
C667        C  0.22031503  0.81415931  0.01915709    -0.10300
C668        C  0.20573968  0.82270296  0.50008783     0.03400
C669        C  0.22070314  0.84624089  0.48101078    -0.08800
C670        C  0.24998813  0.86084353  0.48055511     0.05900
C671        C  0.26450212  0.85254312  0.50006109    -0.08200
H672        H  0.20886456  0.79614491  0.03421741     0.11500
H673        H  0.20954871  0.85277096  0.46595162     0.09000
H674        H  0.28718566  0.86406722  0.50005103     0.08900
O675        O  0.33633260  0.99029152  0.34377416    -0.69000
O676        O  0.30992142  0.93416579  0.40625550    -0.69200
O677        O  0.30991910  0.93416545  0.34374988    -0.69100
O678        O  0.33633499  0.99029177  0.40622987    -0.69100
O679        O  0.29614750  0.98780137  0.40617467    -0.69100
O680        O  0.26978859  0.93179463  0.34382685    -0.69100
O681        O  0.26979097  0.93179522  0.40618712    -0.69000
O682        O  0.29614491  0.98780091  0.34383843    -0.69200
V683        V  0.32235702  0.96217881  0.37500242     1.35200
V684        V  0.28375714  0.95983865  0.37500667     1.35200
C685        C  0.32065898  0.99848957  0.33325509     0.80200
C686        C  0.28539281  0.92356760  0.41681444     0.80300
C687        C  0.28538967  0.92356678  0.33319556     0.80100
C688        C  0.32066239  0.99849006  0.41675339     0.80100
O689        O  0.33722321  0.79073222  0.09375235    -0.69000
O690        O  0.30960101  0.81834450  0.15623990    -0.69200
O691        O  0.33722648  0.79073231  0.15623466    -0.69100
O692        O  0.30959700  0.81834383  0.09375729    -0.69100
O693        O  0.26999139  0.77867722  0.09381679    -0.69100
O694        O  0.29757117  0.75111528  0.15618280    -0.69100
O695        O  0.26999510  0.77867810  0.15618829    -0.69000
O696        O  0.29756811  0.75111502  0.09381151    -0.69200
V697        V  0.32264977  0.80377588  0.12499608     1.35200
V698        V  0.28456013  0.76567533  0.12499974     1.35200
C699        C  0.32201138  0.76626288  0.08320078     0.80200
C700        C  0.28513584  0.80312521  0.16679568     0.80300
C701        C  0.32201538  0.76626311  0.16678842     0.80100
C702        C  0.28513046  0.80312411  0.08320740     0.80100
O703        O  0.18830143  0.98848969  0.09380812    -0.69000
O704        O  0.16194729  0.93247945  0.15615232    -0.69200
O705        O  0.16194655  0.93248385  0.09381521    -0.69100
O706        O  0.18830169  0.98848550  0.15616915    -0.69100
O707        O  0.14817045  0.98611300  0.15624614    -0.69100
O708        O  0.12175838  0.92999212  0.09376077    -0.69100
O709        O  0.12175907  0.92998761  0.15621682    -0.69000
O710        O  0.14817021  0.98611739  0.09374018    -0.69200
V711        V  0.17433511  0.96044394  0.12498633     1.35200
V712        V  0.13573459  0.95810235  0.12499092     1.35200
C713        C  0.17269890  0.99671661  0.08318118     0.80200
C714        C  0.13743317  0.92179011  0.16673572     0.80300
C715        C  0.13743214  0.92179609  0.08323515     0.80100
C716        C  0.17269920  0.99671104  0.16680206     0.80100
O717        O  0.00666996  0.77724820  0.40615425    -0.69000
O718        O  0.45066952  0.75090581  0.34380936    -0.69200
O719        O  0.00666932  0.77724559  0.34381853    -0.69100
O720        O  0.45066994  0.75090842  0.40616933    -0.69100
O721        O  0.45305778  0.79105093  0.40624024    -0.69100
O722        O  0.00917724  0.81744531  0.34375660    -0.69100
O723        O  0.45305722  0.79104821  0.34373415    -0.69200
O724        O  0.00917804  0.81744791  0.40621212    -0.69200
V725        V  0.47871053  0.76486642  0.37498786     1.35200
V726        V  0.48106729  0.80347789  0.37498584     1.35200
C727        C  0.01736716  0.80176656  0.41673324     0.80200
C728        C  0.44245129  0.76651540  0.33317911     0.80300
C729        C  0.01736612  0.80176309  0.33323666     0.80100
C730        C  0.44245187  0.76651894  0.41679820     0.80100
O731        O  0.18805866  0.64158541  0.34380751    -0.69000
O732        O  0.16048685  0.66915251  0.40618090    -0.69200
O733        O  0.18806290  0.64158958  0.40617868    -0.69100
O734        O  0.16048297  0.66914874  0.34380979    -0.69100
O735        O  0.12082736  0.62953206  0.34375992    -0.69100
O736        O  0.14845681  0.60192324  0.40624013    -0.69100
O737        O  0.12083137  0.62953561  0.40624207    -0.69000
O738        O  0.14845245  0.60191920  0.34375782    -0.69200
V739        V  0.17349423  0.65459023  0.37499435     1.35200
V740        V  0.13540420  0.61648989  0.37499988     1.35200
C741        C  0.17291769  0.61713763  0.33320190     0.80200
C742        C  0.13604349  0.65400559  0.41679184     0.80300
C743        C  0.17292360  0.61714314  0.41678929     0.80100
C744        C  0.13603840  0.65400076  0.33320503     0.80100
C745        C  0.26479103  0.88388340  0.45937413    -0.10500
C746        C  0.27516717  0.90234732  0.44033902    -0.12100
C747        C  0.26408739  0.82116371  0.04075470    -0.10500
C748        C  0.27448764  0.81340496  0.05973484    -0.12100
C749        C  0.12757070  0.90049388  0.05984025    -0.10500
C750        C  0.11996792  0.88206580  0.04090138    -0.12100
C751        C  0.05710712  0.81922085  0.45904813    -0.10500
C752        C  0.03867428  0.81162399  0.44011927    -0.12100
C753        C  0.40277195  0.74591914  0.29061969    -0.10500
C754        C  0.42123315  0.75629356  0.30965530    -0.12100
C755        C  0.34006473  0.74522810  0.20923988    -0.10500
C756        C  0.33230289  0.75562651  0.19026053    -0.12100
C757        C  0.18355742  0.60685345  0.30972824    -0.10500
C758        C  0.19395801  0.59909311  0.29074908    -0.12100
C759        C  0.19329296  0.53638878  0.20936940    -0.10500
C760        C  0.18292335  0.51792826  0.19033013    -0.12100
C761        C  0.26478786  0.88388171  0.29063697    -0.10500
C762        C  0.27516260  0.90234590  0.30967158    -0.12100
C763        C  0.26409862  0.82116692  0.20925568    -0.10500
C764        C  0.27449664  0.81340717  0.19027254    -0.12100
C765        C  0.11997186  0.88205594  0.20906471    -0.10500
C766        C  0.12757294  0.90048494  0.19012720    -0.12100
C767        C  0.05710561  0.81921436  0.29091912    -0.10500
C768        C  0.03867239  0.81161861  0.30984862    -0.12100
C769        C  0.40277359  0.74592547  0.45936196    -0.10500
C770        C  0.42123431  0.75629907  0.44032420    -0.12100
C771        C  0.34006164  0.74522993  0.04074552    -0.10500
C772        C  0.33229784  0.75562663  0.05972579    -0.12100
C773        C  0.40097291  0.60108923  0.04092966    -0.10500
C774        C  0.41940180  0.60868644  0.05986367    -0.12100
C775        C  0.33052562  0.51979670  0.44014333    -0.10500
C776        C  0.33812724  0.53822917  0.45907641    -0.12100
C777        C  0.41939957  0.60868295  0.19014271    -0.10500
C778        C  0.40096948  0.60108521  0.20907662    -0.12100
C779        C  0.33811952  0.53822769  0.29093127    -0.10500
C780        C  0.33051993  0.51979588  0.30986491    -0.12100
C781        C  0.03683474  0.66400368  0.05966337    -0.10500
C782        C  0.05529275  0.67437373  0.04062214    -0.12100
C783        C  0.12575707  0.66464390  0.44026444    -0.10500
C784        C  0.11799377  0.67504391  0.45924103    -0.12100
C785        C  0.19396989  0.59910424  0.45923858    -0.10500
C786        C  0.18356708  0.60686240  0.44026111    -0.12100
C787        C  0.19329502  0.53639730  0.04061721    -0.10500
C788        C  0.18292308  0.51793590  0.05965559    -0.12100
C789        C  0.05529155  0.67437031  0.20937755    -0.10500
C790        C  0.03683306  0.66400072  0.19033828    -0.12100
C791        C  0.12575000  0.66463683  0.30973336    -0.10500
C792        C  0.11798765  0.67503674  0.29075655    -0.12100
C793        C  0.10984827  0.68952184  0.76959465     0.05900
C794        C  0.12499288  0.71882151  0.76918524    -0.10300
C795        C  0.11645508  0.73340782  0.75012528     0.03400
C796        C  0.09292440  0.71845252  0.73104008    -0.08800
C797        C  0.07832375  0.68916473  0.73056698     0.05900
C798        C  0.08661906  0.67463984  0.75006418    -0.08200
H799        H  0.14300170  0.73026546  0.78425125     0.11500
H800        H  0.08639914  0.72961569  0.71598757     0.09000
H801        H  0.07509731  0.65195453  0.75004109     0.08900
C802        C  0.20845223  0.59096470  0.98040319     0.05900
C803        C  0.23774916  0.60611313  0.98081816    -0.10300
C804        C  0.25233173  0.59757357  0.99988085     0.03400
C805        C  0.23737538  0.57403779  0.51896289    -0.08800
C806        C  0.20809046  0.55943372  0.51943018     0.05900
C807        C  0.19356929  0.56773029  0.49993054    -0.08200
H808        H  0.24919391  0.62412594  0.96575437     0.11500
H809        H  0.24853552  0.56751122  0.53401744     0.09000
H810        H  0.17088587  0.55620536  0.49994949     0.08900
C811        C  0.10985128  0.68952805  0.98040165     0.05900
C812        C  0.08662228  0.67464488  0.49993436    -0.10300
C813        C  0.07832387  0.68916880  0.51943013     0.03400
C814        C  0.09292084  0.71845645  0.51895345    -0.08800
C815        C  0.11645140  0.73341266  0.99986630     0.05900
C816        C  0.12499241  0.71882763  0.98080757    -0.08200
H817        H  0.07510321  0.65195934  0.49996069     0.11500
H818        H  0.08639365  0.72961908  0.53400552     0.09000
H819        H  0.14300157  0.73027253  0.96574068     0.08900
C820        C  0.34646556  0.56108840  0.76966586     0.05900
C821        C  0.36950493  0.56969740  0.75000469    -0.10300
C822        C  0.37811026  0.59273723  0.73034239     0.03400
C823        C  0.36399107  0.60741440  0.73075767    -0.08800
C824        C  0.34062519  0.59857119  0.75000292     0.05900
C825        C  0.33178576  0.57520474  0.76924901    -0.08200
H826        H  0.38065599  0.55854820  0.75000514     0.11500
H827        H  0.37075603  0.62528044  0.71556801     0.09000
H828        H  0.31391973  0.56843653  0.78443735     0.08900
C829        C  0.37811556  0.59274128  0.51966264     0.05900
C830        C  0.36951095  0.56970015  0.50000232    -0.10300
C831        C  0.34647328  0.56109117  0.98034000     0.03400
C832        C  0.33179457  0.57520869  0.98075402    -0.08800
C833        C  0.34063315  0.59857630  0.49999818     0.05900
C834        C  0.36399721  0.60741951  0.51924427    -0.08200
H835        H  0.38066123  0.55855001  0.50000403     0.11500
H836        H  0.31392983  0.56844038  0.96556491     0.09000
H837        H  0.37076151  0.62528660  0.53443231     0.08900
C838        C  0.32551179  0.61369330  0.99999546     0.83000
N839        N  0.33988842  0.64209829  0.00007170    -0.75300
C840        C  0.32598547  0.65611740  0.00006932     0.85400
N841        N  0.29758550  0.64160978  0.99998765    -0.75300
C842        C  0.28308538  0.61320719  0.99990954     0.85500
N843        N  0.29710943  0.59930931  0.99991510    -0.77000
C844        C  0.34820629  0.73075222  0.51957810     0.05900
C845        C  0.33306601  0.70145258  0.51916190    -0.10300
C846        C  0.34161044  0.68687377  0.00009722     0.03400
C847        C  0.36514269  0.70183613  0.98101429    -0.08800
C848        C  0.37973890  0.73112380  0.98054820     0.05900
C849        C  0.37143748  0.74564146  0.00004993    -0.08200
H850        H  0.31505559  0.69000275  0.53422631     0.11500
H851        H  0.37167303  0.69067843  0.96595860     0.09000
H852        H  0.38295617  0.76832700  0.00003195     0.08900
O853        O  0.00740219  0.66939566  0.59382217    -0.69000
O854        O  0.45140143  0.64305677  0.65617175    -0.69200
O855        O  0.00740093  0.66939409  0.65618285    -0.69100
O856        O  0.45140262  0.64305845  0.59383533    -0.69100
O857        O  0.44889252  0.60285767  0.59377423    -0.69100
O858        O  0.00501095  0.62925055  0.65625401    -0.69100
O859        O  0.44889143  0.60285605  0.65622998    -0.69000
O860        O  0.00501204  0.62925204  0.59374775    -0.69200
V861        V  0.47936087  0.65543686  0.62500299     1.35200
V862        V  0.47700198  0.61682432  0.62500155     1.35200
C863        C  0.01561882  0.65378459  0.58319124     0.80200
C864        C  0.44070403  0.61853871  0.66675234     0.80300
C865        C  0.01561733  0.65378254  0.66681181     0.80100
C866        C  0.44070536  0.61854085  0.58325371     0.80100
C867        C  0.11162140  0.85919884  0.73033658     0.05900
C868        C  0.08857956  0.85059530  0.74999236    -0.10300
C869        C  0.07996866  0.82755774  0.76965995     0.03400
C870        C  0.09408503  0.81287757  0.76925561    -0.08800
C871        C  0.11745329  0.82171545  0.75001574     0.05900
C872        C  0.12629832  0.84507975  0.73076440    -0.08200
H873        H  0.07743054  0.86174657  0.74998306     0.11500
H874        H  0.08731509  0.79501248  0.78444841     0.09000
H875        H  0.14416587  0.85184333  0.71557940     0.08900
C876        C  0.13256934  0.80659353  0.75002443     0.83000
N877        N  0.16097150  0.82097278  0.74994985    -0.75300
C878        C  0.17499080  0.80707022  0.74994998     0.85400
N879        N  0.16048595  0.77866744  0.75002689    -0.75300
C880        C  0.13208585  0.76416451  0.75010295     0.85500
N881        N  0.11818788  0.77818852  0.75009995    -0.77000
C882        C  0.24962069  0.82930739  0.73042737     0.05900
C883        C  0.22032384  0.81415861  0.73085181    -0.10300
C884        C  0.20574443  0.82269958  0.74991933     0.03400
C885        C  0.22070367  0.84623680  0.76899744    -0.08800
C886        C  0.24998885  0.86084163  0.76945561     0.05900
C887        C  0.26450685  0.85254361  0.74995065    -0.08200
H888        H  0.20887659  0.79614546  0.71579021     0.11500
H889        H  0.20954572  0.85276501  0.78405468     0.09000
H890        H  0.28719015  0.86406916  0.74996180     0.08900
C891        C  0.20844169  0.59095439  0.76958352     0.05900
C892        C  0.23773860  0.60610475  0.76916778    -0.10300
C893        C  0.25232388  0.59756735  0.75010516     0.03400
C894        C  0.23737052  0.57403166  0.73102348    -0.08800
C895        C  0.20808543  0.55942528  0.73055648     0.05900
C896        C  0.19356145  0.56771993  0.75005653    -0.08200
H897        H  0.24918125  0.62411719  0.78423121     0.11500
H898        H  0.24853306  0.56750663  0.71596913     0.09000
H899        H  0.17087791  0.55619370  0.75003782     0.08900
C900        C  0.32550388  0.61368793  0.75000179     0.83000
N901        N  0.33988051  0.64209281  0.74992407    -0.75300
C902        C  0.32597791  0.65611218  0.74992151     0.85400
N903        N  0.29757777  0.64160463  0.74999961    -0.75300
C904        C  0.28307763  0.61320184  0.75007882     0.85500
N905        N  0.29710167  0.59930400  0.75007831    -0.77000
C906        C  0.34820623  0.73074857  0.73040766     0.05900
C907        C  0.37143775  0.74563671  0.74993349    -0.10300
C908        C  0.37973646  0.73111809  0.76943596     0.03400
C909        C  0.36513681  0.70183030  0.76897308    -0.08800
C910        C  0.34160405  0.68686878  0.74989240     0.05900
C911        C  0.33306254  0.70144889  0.73082715    -0.08200
H912        H  0.38295899  0.76832197  0.74994857     0.11500
H913        H  0.37166529  0.69067198  0.78402898     0.09000
H914        H  0.31505240  0.68999999  0.71576384     0.08900
C915        C  0.11161816  0.85920780  0.51963066     0.05900
C916        C  0.08857888  0.85060438  0.49997281    -0.10300
C917        C  0.07996857  0.82756512  0.98030827     0.03400
C918        C  0.09408347  0.81288325  0.98071775    -0.08800
C919        C  0.11744919  0.82172096  0.99995980     0.05900
C920        C  0.12629310  0.84508686  0.51920776    -0.08200
H921        H  0.07743125  0.86175685  0.49997840     0.11500
H922        H  0.08731438  0.79501704  0.96552758     0.09000
H923        H  0.14415839  0.85185039  0.53439443     0.08900
C924        C  0.13256459  0.80659801  0.99995783     0.83000
N925        N  0.16096684  0.82097685  0.00004168    -0.75300
C926        C  0.17498599  0.80707409  0.00005078     0.85400
N927        N  0.16048097  0.77867156  0.99997334    -0.75300
C928        C  0.13208103  0.76416896  0.99988804     0.85500
N929        N  0.11818290  0.77819295  0.99988232    -0.77000
C930        C  0.24961216  0.82930636  0.51958347     0.05900
C931        C  0.22031512  0.81415936  0.51915705    -0.10300
C932        C  0.20573965  0.82270289  0.00008790     0.03400
C933        C  0.22070312  0.84624077  0.98101083    -0.08800
C934        C  0.24998808  0.86084350  0.98055509     0.05900
C935        C  0.26450200  0.85254304  0.00006107    -0.08200
H936        H  0.20886469  0.79614489  0.53421723     0.11500
H937        H  0.20954866  0.85277078  0.96595170     0.09000
H938        H  0.28718536  0.86406695  0.00005112     0.08900
O939        O  0.33633254  0.99029151  0.84377418    -0.69000
O940        O  0.30992140  0.93416571  0.90625544    -0.69200
O941        O  0.30991907  0.93416540  0.84374977    -0.69100
O942        O  0.33633507  0.99029165  0.90622981    -0.69100
O943        O  0.29614755  0.98780135  0.90617483    -0.69100
O944        O  0.26978861  0.93179466  0.84382694    -0.69100
O945        O  0.26979097  0.93179524  0.90618718    -0.69000
O946        O  0.29614494  0.98780095  0.84383847    -0.69200
V947        V  0.32235699  0.96217872  0.87500237     1.35200
V948        V  0.28375717  0.95983867  0.87500675     1.35200
C949        C  0.32065894  0.99848953  0.83325506     0.80200
C950        C  0.28539279  0.92356754  0.91681438     0.80300
C951        C  0.28538967  0.92356684  0.83319547     0.80100
C952        C  0.32066250  0.99849003  0.91675341     0.80100
O953        O  0.33722336  0.79073230  0.59375233    -0.69000
O954        O  0.30960101  0.81834455  0.65623998    -0.69200
O955        O  0.33722661  0.79073241  0.65623478    -0.69100
O956        O  0.30959708  0.81834393  0.59375733    -0.69100
O957        O  0.26999141  0.77867727  0.59381668    -0.69100
O958        O  0.29757120  0.75111538  0.65618269    -0.69100
O959        O  0.26999515  0.77867814  0.65618822    -0.69000
O960        O  0.29756816  0.75111502  0.59381150    -0.69200
V961        V  0.32264984  0.80377594  0.62499614     1.35200
V962        V  0.28456010  0.76567533  0.62499969     1.35200
C963        C  0.32201143  0.76626297  0.58320069     0.80200
C964        C  0.28513585  0.80312521  0.66679568     0.80300
C965        C  0.32201548  0.76626312  0.66678830     0.80100
C966        C  0.28513054  0.80312416  0.58320732     0.80100
O967        O  0.18830143  0.98848962  0.59380817    -0.69000
O968        O  0.16194729  0.93247953  0.65615241    -0.69200
O969        O  0.16194647  0.93248375  0.59381535    -0.69100
O970        O  0.18830179  0.98848553  0.65616912    -0.69100
O971        O  0.14817043  0.98611300  0.65624611    -0.69100
O972        O  0.12175838  0.92999216  0.59376075    -0.69100
O973        O  0.12175901  0.92998761  0.65621670    -0.69000
O974        O  0.14817023  0.98611740  0.59374016    -0.69200
V975        V  0.17433512  0.96044394  0.62498638     1.35200
V976        V  0.13573458  0.95810239  0.62499089     1.35200
C977        C  0.17269887  0.99671649  0.58318112     0.80200
C978        C  0.13743312  0.92179014  0.66673568     0.80300
C979        C  0.13743210  0.92179606  0.58323518     0.80100
C980        C  0.17269926  0.99671114  0.66680190     0.80100
O981        O  0.00666998  0.77724818  0.90615418    -0.69000
O982        O  0.45066961  0.75090585  0.84380931    -0.69200
O983        O  0.00666926  0.77724558  0.84381852    -0.69100
O984        O  0.45067004  0.75090844  0.90616931    -0.69100
O985        O  0.45305773  0.79105084  0.90624022    -0.69100
O986        O  0.00917719  0.81744535  0.84375670    -0.69100
O987        O  0.45305723  0.79104822  0.84373421    -0.69200
O988        O  0.00917795  0.81744791  0.90621215    -0.69200
V989        V  0.47871057  0.76486646  0.87498783     1.35200
V990        V  0.48106729  0.80347789  0.87498586     1.35200
C991        C  0.01736724  0.80176660  0.91673310     0.80200
C992        C  0.44245131  0.76651541  0.83317916     0.80300
C993        C  0.01736607  0.80176311  0.83323667     0.80100
C994        C  0.44245191  0.76651890  0.91679820     0.80100
O995        O  0.18805864  0.64158548  0.84380759    -0.69000
O996        O  0.16048684  0.66915260  0.90618097    -0.69200
O997        O  0.18806290  0.64158968  0.90617885    -0.69100
O998        O  0.16048303  0.66914881  0.84380981    -0.69100
O999        O  0.12082746  0.62953212  0.84376003    -0.69100
O1000       O  0.14845683  0.60192329  0.90624018    -0.69100
O1001       O  0.12083134  0.62953560  0.90624218    -0.69000
O1002       O  0.14845244  0.60191928  0.84375788    -0.69200
V1003       V  0.17349420  0.65459026  0.87499443     1.35200
V1004       V  0.13540419  0.61648991  0.87499997     1.35200
C1005       C  0.17291777  0.61713763  0.83320212     0.80200
C1006       C  0.13604349  0.65400560  0.91679192     0.80300
C1007       C  0.17292363  0.61714319  0.91678932     0.80100
C1008       C  0.13603845  0.65400081  0.83320515     0.80100
C1009       C  0.26479106  0.88388344  0.95937412    -0.10500
C1010       C  0.27516719  0.90234738  0.94033904    -0.12100
C1011       C  0.26408748  0.82116370  0.54075462    -0.10500
C1012       C  0.27448758  0.81340496  0.55973492    -0.12100
C1013       C  0.12757066  0.90049380  0.55984022    -0.10500
C1014       C  0.11996803  0.88206576  0.54090131    -0.12100
C1015       C  0.05710719  0.81922087  0.95904812    -0.10500
C1016       C  0.03867429  0.81162393  0.94011930    -0.12100
C1017       C  0.40277196  0.74591917  0.79061967    -0.10500
C1018       C  0.42123323  0.75629354  0.80965525    -0.12100
C1019       C  0.34006478  0.74522807  0.70923986    -0.10500
C1020       C  0.33230291  0.75562651  0.69026055    -0.12100
C1021       C  0.18355746  0.60685351  0.80972821    -0.10500
C1022       C  0.19395801  0.59909305  0.79074911    -0.12100
C1023       C  0.19329300  0.53638877  0.70936931    -0.10500
C1024       C  0.18292330  0.51792830  0.69033001    -0.12100
C1025       C  0.26478796  0.88388176  0.79063693    -0.10500
C1026       C  0.27516261  0.90234597  0.80967152    -0.12100
C1027       C  0.26409868  0.82116699  0.70925551    -0.10500
C1028       C  0.27449658  0.81340715  0.69027238    -0.12100
C1029       C  0.11997184  0.88205591  0.70906462    -0.10500
C1030       C  0.12757289  0.90048495  0.69012717    -0.12100
C1031       C  0.05710569  0.81921440  0.79091899    -0.10500
C1032       C  0.03867248  0.81161863  0.80984857    -0.12100
C1033       C  0.40277355  0.74592538  0.95936188    -0.10500
C1034       C  0.42123435  0.75629908  0.94032420    -0.12100
C1035       C  0.34006154  0.74522993  0.54074551    -0.10500
C1036       C  0.33229787  0.75562672  0.55972579    -0.12100
C1037       C  0.40097287  0.60108918  0.54092961    -0.10500
C1038       C  0.41940185  0.60868659  0.55986356    -0.12100
C1039       C  0.33052565  0.51979668  0.94014333    -0.10500
C1040       C  0.33812722  0.53822911  0.95907641    -0.12100
C1041       C  0.41939957  0.60868306  0.69014270    -0.10500
C1042       C  0.40096947  0.60108517  0.70907662    -0.12100
C1043       C  0.33811951  0.53822765  0.79093130    -0.10500
C1044       C  0.33051990  0.51979588  0.80986498    -0.12100
C1045       C  0.03683470  0.66400371  0.55966338    -0.10500
C1046       C  0.05529270  0.67437375  0.54062220    -0.12100
C1047       C  0.12575709  0.66464388  0.94026448    -0.10500
C1048       C  0.11799379  0.67504394  0.95924097    -0.12100
C1049       C  0.19396990  0.59910425  0.95923855    -0.10500
C1050       C  0.18356706  0.60686250  0.94026120    -0.12100
C1051       C  0.19329495  0.53639723  0.54061714    -0.10500
C1052       C  0.18292301  0.51793583  0.55965553    -0.12100
C1053       C  0.05529158  0.67437028  0.70937754    -0.10500
C1054       C  0.03683320  0.66400081  0.69033818    -0.12100
C1055       C  0.12575000  0.66463677  0.80973347    -0.10500
C1056       C  0.11798770  0.67503675  0.79075669    -0.12100
C1057       C  0.60984806  0.18952161  0.26959453     0.05900
C1058       C  0.62499263  0.21882135  0.26918492    -0.10300
C1059       C  0.61645486  0.23340770  0.25012505     0.03400
C1060       C  0.59292431  0.21845246  0.23103999    -0.08800
C1061       C  0.57832364  0.18916458  0.23056698     0.05900
C1062       C  0.58661897  0.17463960  0.25006413    -0.08200
H1063       H  0.64300119  0.23026534  0.28425066     0.11500
H1064       H  0.58639908  0.22961574  0.21598749     0.09000
H1065       H  0.57509699  0.15195398  0.25004112     0.08900
C1066       C  0.70845213  0.09096466  0.48040322     0.05900
C1067       C  0.73774905  0.10611304  0.48081817    -0.10300
C1068       C  0.75233159  0.09757352  0.49988095     0.03400
C1069       C  0.73737533  0.07403781  0.01896290    -0.08800
C1070       C  0.70809049  0.05943376  0.01943020     0.05900
C1071       C  0.69356940  0.06773039  0.99993056    -0.08200
H1072       H  0.74919376  0.12412587  0.46575485     0.11500
H1073       H  0.74853532  0.06751136  0.03401778     0.09000
H1074       H  0.67088616  0.05620571  0.99994960     0.08900
C1075       C  0.60985115  0.18952799  0.48040175     0.05900
C1076       C  0.58662241  0.17464505  0.99993437    -0.10300
C1077       C  0.57832396  0.18916891  0.01943005     0.03400
C1078       C  0.59292097  0.21845649  0.01895345    -0.08800
C1079       C  0.61645123  0.23341260  0.49986652     0.05900
C1080       C  0.62499226  0.21882758  0.48080770    -0.08200
H1081       H  0.57510341  0.15195982  0.99996043     0.11500
H1082       H  0.58639372  0.22961897  0.03400512     0.09000
H1083       H  0.64300104  0.23027239  0.46574081     0.08900
C1084       C  0.84646539  0.06108832  0.26966589     0.05900
C1085       C  0.86950487  0.06969728  0.25000465    -0.10300
C1086       C  0.87811022  0.09273717  0.23034248     0.03400
C1087       C  0.86399091  0.10741428  0.23075777    -0.08800
C1088       C  0.84062495  0.09857106  0.25000309     0.05900
C1089       C  0.83178547  0.07520458  0.26924913    -0.08200
H1090       H  0.88065593  0.05854807  0.25000499     0.11500
H1091       H  0.87075604  0.12528042  0.21556861     0.09000
H1092       H  0.81391896  0.06843602  0.28443745     0.08900
C1093       C  0.87811551  0.09274131  0.01966262     0.05900
C1094       C  0.86951079  0.06970016  0.00000232    -0.10300
C1095       C  0.84647337  0.06109119  0.48034015     0.03400
C1096       C  0.83179473  0.07520878  0.48075418    -0.08800
C1097       C  0.84063310  0.09857626  0.99999790     0.05900
C1098       C  0.86399708  0.10741944  0.01924421    -0.08200
H1099       H  0.88066066  0.05854988  0.00000439     0.11500
H1100       H  0.81392998  0.06844034  0.46556551     0.09000
H1101       H  0.87076146  0.12528659  0.03443171     0.08900
C1102       C  0.82551180  0.11369331  0.49999554     0.83000
N1103       N  0.83988842  0.14209830  0.50007171    -0.75300
C1104       C  0.82598541  0.15611734  0.50006946     0.85400
N1105       N  0.79758543  0.14160972  0.49998763    -0.75300
C1106       C  0.78308532  0.11320715  0.49990955     0.85500
N1107       N  0.79710946  0.09930934  0.49991518    -0.77000
C1108       C  0.84820660  0.23075240  0.01957799     0.05900
C1109       C  0.83306630  0.20145271  0.01916172    -0.10300
C1110       C  0.84161036  0.18687374  0.50009728     0.03400
C1111       C  0.86514264  0.20183615  0.48101436    -0.08800
C1112       C  0.87973891  0.23112391  0.48054823     0.05900
C1113       C  0.87143749  0.24564158  0.50004989    -0.08200
H1114       H  0.81505651  0.19000313  0.03422610     0.11500
H1115       H  0.87167286  0.19067861  0.46595866     0.09000
H1116       H  0.88295632  0.26832711  0.50003227     0.08900
O1117       O  0.50740218  0.16939565  0.09382219    -0.69000
O1118       O  0.95140141  0.14305681  0.15617180    -0.69200
O1119       O  0.50740090  0.16939409  0.15618276    -0.69100
O1120       O  0.95140261  0.14305843  0.09383525    -0.69100
O1121       O  0.94889250  0.10285770  0.09377414    -0.69100
O1122       O  0.50501095  0.12925053  0.15625418    -0.69100
O1123       O  0.94889157  0.10285613  0.15623003    -0.69000
O1124       O  0.50501205  0.12925204  0.09374779    -0.69200
V1125       V  0.97936084  0.15543682  0.12500300     1.35200
V1126       V  0.97700202  0.11682435  0.12500153     1.35200
C1127       C  0.51561878  0.15378455  0.08319117     0.80200
C1128       C  0.94070402  0.11853872  0.16675228     0.80300
C1129       C  0.51561733  0.15378256  0.16681181     0.80100
C1130       C  0.94070532  0.11854083  0.08325370     0.80100
C1131       C  0.61162106  0.35919886  0.23033681     0.05900
C1132       C  0.58857929  0.35059532  0.24999255    -0.10300
C1133       C  0.57996846  0.32755775  0.26966005     0.03400
C1134       C  0.59408494  0.31287762  0.26925579    -0.08800
C1135       C  0.61745306  0.32171539  0.25001592     0.05900
C1136       C  0.62629799  0.34507972  0.23076467    -0.08200
H1137       H  0.57742999  0.36174663  0.24998340     0.11500
H1138       H  0.58731502  0.29501257  0.28444855     0.09000
H1139       H  0.64416521  0.35184326  0.21557996     0.08900
C1140       C  0.63256928  0.30659352  0.25002447     0.83000
N1141       N  0.66097148  0.32097278  0.24994975    -0.75300
C1142       C  0.67499079  0.30707024  0.24994988     0.85400
N1143       N  0.66048588  0.27866743  0.25002677    -0.75300
C1144       C  0.63208574  0.26416446  0.25010293     0.85500
N1145       N  0.61818780  0.27818850  0.25009990    -0.77000
C1146       C  0.74962069  0.32930737  0.23042739     0.05900
C1147       C  0.72032386  0.31415865  0.23085184    -0.10300
C1148       C  0.70574447  0.32269967  0.24991921     0.03400
C1149       C  0.72070370  0.34623683  0.26899745    -0.08800
C1150       C  0.74998889  0.36084161  0.26945563     0.05900
C1151       C  0.76450684  0.35254351  0.24995068    -0.08200
H1152       H  0.70887659  0.29614556  0.21579006     0.11500
H1153       H  0.70954581  0.35276511  0.28405452     0.09000
H1154       H  0.78719032  0.36406876  0.24996203     0.08900
C1155       C  0.70844193  0.09095457  0.26958369     0.05900
C1156       C  0.73773880  0.10610498  0.26916789    -0.10300
C1157       C  0.75232400  0.09756749  0.25010520     0.03400
C1158       C  0.73737058  0.07403176  0.23102352    -0.08800
C1159       C  0.70808559  0.05942538  0.23055654     0.05900
C1160       C  0.69356166  0.06772007  0.25005662    -0.08200
H1161       H  0.74918159  0.12411747  0.28423169     0.11500
H1162       H  0.74853316  0.06750684  0.21596901     0.09000
H1163       H  0.67087847  0.05619383  0.25003813     0.08900
C1164       C  0.82550383  0.11368792  0.25000170     0.83000
N1165       N  0.83988049  0.14209281  0.24992412    -0.75300
C1166       C  0.82597788  0.15611218  0.24992155     0.85400
N1167       N  0.79757774  0.14160459  0.24999969    -0.75300
C1168       C  0.78307763  0.11320180  0.25007881     0.85500
N1169       N  0.79710165  0.09930397  0.25007833    -0.77000
C1170       C  0.84820647  0.23074883  0.23040773     0.05900
C1171       C  0.87143794  0.24563695  0.24993349    -0.10300
C1172       C  0.87973657  0.23111830  0.26943604     0.03400
C1173       C  0.86513702  0.20183041  0.26897311    -0.08800
C1174       C  0.84160422  0.18686890  0.24989256     0.05900
C1175       C  0.83306279  0.20144905  0.23082724    -0.08200
H1176       H  0.88295927  0.26832260  0.24994861     0.11500
H1177       H  0.87166545  0.19067212  0.28402916     0.09000
H1178       H  0.81505272  0.19000028  0.21576436     0.08900
C1179       C  0.61161813  0.35920778  0.01963071     0.05900
C1180       C  0.58857888  0.35060443  0.99997289    -0.10300
C1181       C  0.57996850  0.32756515  0.48030832     0.03400
C1182       C  0.59408351  0.31288335  0.48071790    -0.08800
C1183       C  0.61744925  0.32172109  0.49995987     0.05900
C1184       C  0.62629306  0.34508677  0.01920779    -0.08200
H1185       H  0.57743115  0.36175679  0.99997874     0.11500
H1186       H  0.58731434  0.29501707  0.46552822     0.09000
H1187       H  0.64415828  0.35185020  0.03439447     0.08900
C1188       C  0.63256461  0.30659806  0.49995777     0.83000
N1189       N  0.66096685  0.32097690  0.50004170    -0.75300
C1190       C  0.67498603  0.30707418  0.50005087     0.85400
N1191       N  0.66048098  0.27867162  0.49997332    -0.75300
C1192       C  0.63208101  0.26416898  0.49988789     0.85500
N1193       N  0.61818289  0.27819298  0.49988236    -0.77000
C1194       C  0.74961219  0.32930647  0.01958338     0.05900
C1195       C  0.72031521  0.31415949  0.01915701    -0.10300
C1196       C  0.70573975  0.32270303  0.50008774     0.03400
C1197       C  0.72070312  0.34624087  0.48101072    -0.08800
C1198       C  0.74998813  0.36084355  0.48055503     0.05900
C1199       C  0.76450218  0.35254316  0.50006098    -0.08200
H1200       H  0.70886496  0.29614551  0.03421739     0.11500
H1201       H  0.70954862  0.35277089  0.46595155     0.09000
H1202       H  0.78718571  0.36406727  0.50005087     0.08900
O1203       O  0.83633265  0.49029152  0.34377417    -0.69000
O1204       O  0.80992132  0.43416571  0.40625554    -0.69200
O1205       O  0.80991897  0.43416533  0.34374982    -0.69100
O1206       O  0.83633506  0.49029172  0.40622988    -0.69100
O1207       O  0.79614762  0.48780139  0.40617467    -0.69100
O1208       O  0.76978852  0.43179462  0.34382691    -0.69100
O1209       O  0.76979101  0.43179522  0.40618715    -0.69000
O1210       O  0.79614494  0.48780090  0.34383839    -0.69200
V1211       V  0.82235697  0.46217874  0.37500240     1.35200
V1212       V  0.78375716  0.45983867  0.37500669     1.35200
C1213       C  0.82065903  0.49848957  0.33325509     0.80200
C1214       C  0.78539273  0.42356748  0.41681441     0.80300
C1215       C  0.78538958  0.42356677  0.33319551     0.80100
C1216       C  0.82066249  0.49849005  0.41675339     0.80100
O1217       O  0.83722328  0.29073240  0.09375241    -0.69000
O1218       O  0.80960091  0.31834452  0.15623990    -0.69200
O1219       O  0.83722652  0.29073235  0.15623470    -0.69100
O1220       O  0.80959703  0.31834387  0.09375735    -0.69100
O1221       O  0.76999136  0.27867721  0.09381679    -0.69100
O1222       O  0.79757112  0.25111529  0.15618277    -0.69100
O1223       O  0.76999509  0.27867808  0.15618821    -0.69000
O1224       O  0.79756815  0.25111504  0.09381151    -0.69200
V1225       V  0.82264978  0.30377594  0.12499616     1.35200
V1226       V  0.78456008  0.26567528  0.12499971     1.35200
C1227       C  0.82201144  0.26626300  0.08320082     0.80200
C1228       C  0.78513579  0.30312516  0.16679567     0.80300
C1229       C  0.82201536  0.26626313  0.16678841     0.80100
C1230       C  0.78513048  0.30312409  0.08320737     0.80100
O1231       O  0.68830141  0.48848964  0.09380817    -0.69000
O1232       O  0.66194732  0.43247943  0.15615235    -0.69200
O1233       O  0.66194655  0.43248383  0.09381523    -0.69100
O1234       O  0.68830170  0.48848550  0.15616913    -0.69100
O1235       O  0.64817045  0.48611298  0.15624616    -0.69100
O1236       O  0.62175839  0.42999211  0.09376073    -0.69100
O1237       O  0.62175910  0.42998764  0.15621677    -0.69000
O1238       O  0.64817021  0.48611738  0.09374024    -0.69200
V1239       V  0.67433514  0.46044393  0.12498636     1.35200
V1240       V  0.63573464  0.45810235  0.12499092     1.35200
C1241       C  0.67269887  0.49671652  0.08318118     0.80200
C1242       C  0.63743317  0.42179009  0.16673568     0.80300
C1243       C  0.63743212  0.42179600  0.08323521     0.80100
C1244       C  0.67269921  0.49671104  0.16680207     0.80100
O1245       O  0.50666996  0.27724815  0.40615434    -0.69000
O1246       O  0.95066953  0.25090585  0.34380923    -0.69200
O1247       O  0.50666932  0.27724563  0.34381861    -0.69100
O1248       O  0.95066996  0.25090839  0.40616929    -0.69100
O1249       O  0.95305770  0.29105087  0.40624024    -0.69100
O1250       O  0.50917719  0.31744533  0.34375659    -0.69100
O1251       O  0.95305717  0.29104824  0.34373421    -0.69200
O1252       O  0.50917807  0.31744800  0.40621217    -0.69200
V1253       V  0.97871053  0.26486644  0.37498784     1.35200
V1254       V  0.98106730  0.30347793  0.37498588     1.35200
C1255       C  0.51736721  0.30176660  0.41673322     0.80200
C1256       C  0.94245123  0.26651541  0.33317914     0.80300
C1257       C  0.51736608  0.30176310  0.33323665     0.80100
C1258       C  0.94245186  0.26651889  0.41679819     0.80100
O1259       O  0.68805870  0.14158545  0.34380750    -0.69000
O1260       O  0.66048685  0.16915252  0.40618086    -0.69200
O1261       O  0.68806288  0.14158960  0.40617869    -0.69100
O1262       O  0.66048300  0.16914881  0.34380975    -0.69100
O1263       O  0.62082742  0.12953210  0.34375987    -0.69100
O1264       O  0.64845688  0.10192327  0.40624016    -0.69100
O1265       O  0.62083144  0.12953569  0.40624203    -0.69000
O1266       O  0.64845253  0.10191923  0.34375781    -0.69200
V1267       V  0.67349417  0.15459019  0.37499432     1.35200
V1268       V  0.63540423  0.11648991  0.37499987     1.35200
C1269       C  0.67291780  0.11713764  0.33320196     0.80200
C1270       C  0.63604355  0.15400562  0.41679183     0.80300
C1271       C  0.67292365  0.11714315  0.41678929     0.80100
C1272       C  0.63603842  0.15400081  0.33320504     0.80100
C1273       C  0.76479104  0.38388339  0.45937412    -0.10500
C1274       C  0.77516712  0.40234732  0.44033907    -0.12100
C1275       C  0.76408735  0.32116369  0.04075463    -0.10500
C1276       C  0.77448753  0.31340488  0.05973480    -0.12100
C1277       C  0.62757076  0.40049392  0.05984014    -0.10500
C1278       C  0.61996794  0.38206578  0.04090134    -0.12100
C1279       C  0.55710710  0.31922082  0.45904809    -0.10500
C1280       C  0.53867425  0.31162400  0.44011927    -0.12100
C1281       C  0.90277197  0.24591921  0.29061970    -0.10500
C1282       C  0.92123318  0.25629349  0.30965527    -0.12100
C1283       C  0.84006473  0.24522809  0.20923988    -0.10500
C1284       C  0.83230289  0.25562648  0.19026047    -0.12100
C1285       C  0.68355745  0.10685350  0.30972820    -0.10500
C1286       C  0.69395791  0.09909299  0.29074908    -0.12100
C1287       C  0.69329302  0.03638875  0.20936940    -0.10500
C1288       C  0.68292329  0.01792830  0.19033005    -0.12100
C1289       C  0.76478785  0.38388168  0.29063701    -0.10500
C1290       C  0.77516258  0.40234588  0.30967159    -0.12100
C1291       C  0.76409864  0.32116695  0.20925556    -0.10500
C1292       C  0.77449655  0.31340711  0.19027242    -0.12100
C1293       C  0.61997185  0.38205593  0.20906469    -0.10500
C1294       C  0.62757298  0.40048497  0.19012722    -0.12100
C1295       C  0.55710559  0.31921426  0.29091908    -0.10500
C1296       C  0.53867238  0.31161855  0.30984857    -0.12100
C1297       C  0.90277357  0.24592543  0.45936190    -0.10500
C1298       C  0.92123430  0.25629907  0.44032415    -0.12100
C1299       C  0.84006172  0.24523003  0.04074548    -0.10500
C1300       C  0.83229787  0.25562663  0.05972586    -0.12100
C1301       C  0.90097291  0.10108917  0.04092970    -0.10500
C1302       C  0.91940190  0.10868653  0.05986363    -0.12100
C1303       C  0.83052566  0.01979671  0.44014334    -0.10500
C1304       C  0.83812721  0.03822917  0.45907638    -0.12100
C1305       C  0.91939962  0.10868309  0.19014269    -0.10500
C1306       C  0.90096950  0.10108521  0.20907662    -0.12100
C1307       C  0.83811950  0.03822766  0.29093124    -0.10500
C1308       C  0.83051996  0.01979589  0.30986489    -0.12100
C1309       C  0.53683480  0.16400364  0.05966334    -0.10500
C1310       C  0.55529277  0.17437375  0.04062209    -0.12100
C1311       C  0.62575707  0.16464394  0.44026435    -0.10500
C1312       C  0.61799379  0.17504397  0.45924096    -0.12100
C1313       C  0.69396985  0.09910419  0.45923858    -0.10500
C1314       C  0.68356701  0.10686239  0.44026121    -0.12100
C1315       C  0.69329494  0.03639731  0.04061720    -0.10500
C1316       C  0.68292290  0.01793588  0.05965551    -0.12100
C1317       C  0.55529150  0.17437029  0.20937757    -0.10500
C1318       C  0.53683308  0.16400072  0.19033827    -0.12100
C1319       C  0.62574996  0.16463678  0.30973340    -0.10500
C1320       C  0.61798770  0.17503681  0.29075668    -0.12100
C1321       C  0.60984830  0.18952180  0.76959464     0.05900
C1322       C  0.62499295  0.21882151  0.76918525    -0.10300
C1323       C  0.61645516  0.23340779  0.75012537     0.03400
C1324       C  0.59292448  0.21845252  0.73104020    -0.08800
C1325       C  0.57832377  0.18916465  0.73056703     0.05900
C1326       C  0.58661902  0.17463974  0.75006423    -0.08200
H1327       H  0.64300195  0.23026564  0.78425137     0.11500
H1328       H  0.58639952  0.22961588  0.71598764     0.09000
H1329       H  0.57509728  0.15195415  0.75004103     0.08900
C1330       C  0.70845222  0.09096473  0.98040311     0.05900
C1331       C  0.73774918  0.10611314  0.98081808    -0.10300
C1332       C  0.75233165  0.09757356  0.99988086     0.03400
C1333       C  0.73737542  0.07403778  0.51896283    -0.08800
C1334       C  0.70809052  0.05943374  0.51943022     0.05900
C1335       C  0.69356937  0.06773035  0.49993057    -0.08200
H1336       H  0.74919408  0.12412590  0.96575421     0.11500
H1337       H  0.74853563  0.06751124  0.53401733     0.09000
H1338       H  0.67088611  0.05620572  0.49994969     0.08900
C1339       C  0.60985129  0.18952805  0.98040172     0.05900
C1340       C  0.58662234  0.17464504  0.49993445    -0.10300
C1341       C  0.57832388  0.18916895  0.51943019     0.03400
C1342       C  0.59292077  0.21845652  0.51895355    -0.08800
C1343       C  0.61645134  0.23341263  0.99986626     0.05900
C1344       C  0.62499243  0.21882764  0.98080760    -0.08200
H1345       H  0.57510344  0.15195983  0.49996079     0.11500
H1346       H  0.58639359  0.22961910  0.53400565     0.09000
H1347       H  0.64300158  0.23027252  0.96574072     0.08900
C1348       C  0.84646560  0.06108848  0.76966582     0.05900
C1349       C  0.86950497  0.06969739  0.75000460    -0.10300
C1350       C  0.87811033  0.09273738  0.73034234     0.03400
C1351       C  0.86399106  0.10741452  0.73075758    -0.08800
C1352       C  0.84062518  0.09857129  0.75000287     0.05900
C1353       C  0.83178571  0.07520475  0.76924900    -0.08200
H1354       H  0.88065606  0.05854819  0.75000513     0.11500
H1355       H  0.87075630  0.12528104  0.71556795     0.09000
H1356       H  0.81391957  0.06843636  0.78443724     0.08900
C1357       C  0.87811551  0.09274123  0.51966263     0.05900
C1358       C  0.86951087  0.06970012  0.50000228    -0.10300
C1359       C  0.84647334  0.06109127  0.98034010     0.03400
C1360       C  0.83179471  0.07520877  0.98075413    -0.08800
C1361       C  0.84063304  0.09857623  0.49999809     0.05900
C1362       C  0.86399712  0.10741947  0.51924425    -0.08200
H1363       H  0.88066120  0.05854991  0.50000396     0.11500
H1364       H  0.81393054  0.06844082  0.96556493     0.09000
H1365       H  0.87076139  0.12528656  0.53443223     0.08900
C1366       C  0.82551179  0.11369325  0.99999548     0.83000
N1367       N  0.83988837  0.14209823  0.00007172    -0.75300
C1368       C  0.82598541  0.15611732  0.00006937     0.85400
N1369       N  0.79758545  0.14160976  0.99998767    -0.75300
C1370       C  0.78308535  0.11320715  0.99990958     0.85500
N1371       N  0.79710947  0.09930929  0.99991512    -0.77000
C1372       C  0.84820643  0.23075229  0.51957808     0.05900
C1373       C  0.83306608  0.20145263  0.51916178    -0.10300
C1374       C  0.84161047  0.18687378  0.00009717     0.03400
C1375       C  0.86514265  0.20183615  0.98101430    -0.08800
C1376       C  0.87973894  0.23112388  0.98054820     0.05900
C1377       C  0.87143761  0.24564162  0.00004978    -0.08200
H1378       H  0.81505594  0.19000300  0.53422607     0.11500
H1379       H  0.87167279  0.19067857  0.96595854     0.09000
H1380       H  0.88295659  0.26832717  0.00003198     0.08900
O1381       O  0.50740220  0.16939564  0.59382218    -0.69000
O1382       O  0.95140139  0.14305669  0.65617183    -0.69200
O1383       O  0.50740090  0.16939405  0.65618283    -0.69100
O1384       O  0.95140259  0.14305840  0.59383535    -0.69100
O1385       O  0.94889256  0.10285772  0.59377415    -0.69100
O1386       O  0.50501092  0.12925062  0.65625406    -0.69100
O1387       O  0.94889144  0.10285602  0.65622997    -0.69000
O1388       O  0.50501203  0.12925211  0.59374774    -0.69200
V1389       V  0.97936082  0.15543678  0.62500301     1.35200
V1390       V  0.97700201  0.11682440  0.62500154     1.35200
C1391       C  0.51561882  0.15378461  0.58319117     0.80200
C1392       C  0.94070399  0.11853863  0.66675236     0.80300
C1393       C  0.51561739  0.15378261  0.66681179     0.80100
C1394       C  0.94070532  0.11854083  0.58325372     0.80100
C1395       C  0.61162129  0.35919872  0.73033665     0.05900
C1396       C  0.58857951  0.35059517  0.74999250    -0.10300
C1397       C  0.57996860  0.32755763  0.76966005     0.03400
C1398       C  0.59408494  0.31287752  0.76925568    -0.08800
C1399       C  0.61745315  0.32171533  0.75001576     0.05900
C1400       C  0.62629822  0.34507969  0.73076448    -0.08200
H1401       H  0.57743043  0.36174615  0.74998320     0.11500
H1402       H  0.58731503  0.29501247  0.78444850     0.09000
H1403       H  0.64416547  0.35184316  0.71557946     0.08900
C1404       C  0.63256933  0.30659352  0.75002439     0.83000
N1405       N  0.66097152  0.32097286  0.74994983    -0.75300
C1406       C  0.67499082  0.30707031  0.74994994     0.85400
N1407       N  0.66048593  0.27866751  0.75002688    -0.75300
C1408       C  0.63208584  0.26416450  0.75010298     0.85500
N1409       N  0.61818788  0.27818849  0.75009995    -0.77000
C1410       C  0.74962062  0.32930737  0.73042737     0.05900
C1411       C  0.72032386  0.31415867  0.73085174    -0.10300
C1412       C  0.70574448  0.32269964  0.74991928     0.03400
C1413       C  0.72070375  0.34623689  0.76899741    -0.08800
C1414       C  0.74998884  0.36084167  0.76945560     0.05900
C1415       C  0.76450673  0.35254358  0.74995062    -0.08200
H1416       H  0.70887660  0.29614539  0.71579013     0.11500
H1417       H  0.70954585  0.35276505  0.78405471     0.09000
H1418       H  0.78719003  0.36406911  0.74996175     0.08900
C1419       C  0.70844175  0.09095446  0.76958358     0.05900
C1420       C  0.73773863  0.10610481  0.76916785    -0.10300
C1421       C  0.75232383  0.09756739  0.75010522     0.03400
C1422       C  0.73737044  0.07403169  0.73102357    -0.08800
C1423       C  0.70808544  0.05942531  0.73055657     0.05900
C1424       C  0.69356152  0.06771998  0.75005652    -0.08200
H1425       H  0.74918134  0.12411726  0.78423131     0.11500
H1426       H  0.74853283  0.06750678  0.71596926     0.09000
H1427       H  0.67087821  0.05619360  0.75003794     0.08900
C1428       C  0.82550382  0.11368789  0.75000179     0.83000
N1429       N  0.83988048  0.14209280  0.74992407    -0.75300
C1430       C  0.82597783  0.15611216  0.74992150     0.85400
N1431       N  0.79757768  0.14160456  0.74999959    -0.75300
C1432       C  0.78307754  0.11320174  0.75007879     0.85500
N1433       N  0.79710161  0.09930392  0.75007830    -0.77000
C1434       C  0.84820639  0.23074879  0.73040764     0.05900
C1435       C  0.87143794  0.24563697  0.74993341    -0.10300
C1436       C  0.87973651  0.23111836  0.76943595     0.03400
C1437       C  0.86513679  0.20183046  0.76897296    -0.08800
C1438       C  0.84160403  0.18686891  0.74989230     0.05900
C1439       C  0.83306266  0.20144904  0.73082703    -0.08200
H1440       H  0.88295935  0.26832264  0.74994851     0.11500
H1441       H  0.87166492  0.19067219  0.78402898     0.09000
H1442       H  0.81505256  0.19000021  0.71576375     0.08900
C1443       C  0.61161798  0.35920785  0.51963068     0.05900
C1444       C  0.58857872  0.35060449  0.49997282    -0.10300
C1445       C  0.57996861  0.32756506  0.98030824     0.03400
C1446       C  0.59408349  0.31288325  0.98071775    -0.08800
C1447       C  0.61744916  0.32172091  0.99995985     0.05900
C1448       C  0.62629307  0.34508687  0.51920778    -0.08200
H1449       H  0.57743074  0.36175698  0.49997851     0.11500
H1450       H  0.58731437  0.29501694  0.96552765     0.09000
H1451       H  0.64415814  0.35185009  0.53439450     0.08900
C1452       C  0.63256458  0.30659804  0.99995781     0.83000
N1453       N  0.66096685  0.32097692  0.00004166    -0.75300
C1454       C  0.67498605  0.30707423  0.00005079     0.85400
N1455       N  0.66048098  0.27867167  0.99997333    -0.75300
C1456       C  0.63208100  0.26416901  0.99988800     0.85500
N1457       N  0.61818287  0.27819296  0.99988231    -0.77000
C1458       C  0.74961227  0.32930647  0.51958337     0.05900
C1459       C  0.72031521  0.31415944  0.51915694    -0.10300
C1460       C  0.70573980  0.32270305  0.00008789     0.03400
C1461       C  0.72070319  0.34624080  0.98101079    -0.08800
C1462       C  0.74998820  0.36084357  0.98055506     0.05900
C1463       C  0.76450215  0.35254312  0.00006099    -0.08200
H1464       H  0.70886494  0.29614541  0.53421716     0.11500
H1465       H  0.70954870  0.35277053  0.96595156     0.09000
H1466       H  0.78718570  0.36406727  0.00005120     0.08900
O1467       O  0.83633259  0.49029151  0.84377418    -0.69000
O1468       O  0.80992133  0.43416568  0.90625547    -0.69200
O1469       O  0.80991909  0.43416539  0.84374978    -0.69100
O1470       O  0.83633498  0.49029164  0.90622982    -0.69100
O1471       O  0.79614754  0.48780134  0.90617477    -0.69100
O1472       O  0.76978859  0.43179458  0.84382695    -0.69100
O1473       O  0.76979088  0.43179515  0.90618727    -0.69000
O1474       O  0.79614490  0.48780092  0.84383840    -0.69200
V1475       V  0.82235698  0.46217872  0.87500239     1.35200
V1476       V  0.78375713  0.45983863  0.87500673     1.35200
C1477       C  0.82065894  0.49848952  0.83325505     0.80200
C1478       C  0.78539272  0.42356747  0.91681440     0.80300
C1479       C  0.78538968  0.42356681  0.83319550     0.80100
C1480       C  0.82066244  0.49849001  0.91675338     0.80100
O1481       O  0.83722336  0.29073232  0.59375244    -0.69000
O1482       O  0.80960101  0.31834452  0.65623988    -0.69200
O1483       O  0.83722653  0.29073232  0.65623478    -0.69100
O1484       O  0.80959703  0.31834383  0.59375723    -0.69100
O1485       O  0.76999137  0.27867723  0.59381672    -0.69100
O1486       O  0.79757116  0.25111535  0.65618263    -0.69100
O1487       O  0.76999507  0.27867810  0.65618821    -0.69000
O1488       O  0.79756811  0.25111508  0.59381146    -0.69200
V1489       V  0.82264980  0.30377589  0.62499612     1.35200
V1490       V  0.78456006  0.26567531  0.62499967     1.35200
C1491       C  0.82201144  0.26626297  0.58320081     0.80200
C1492       C  0.78513584  0.30312517  0.66679569     0.80300
C1493       C  0.82201537  0.26626312  0.66678840     0.80100
C1494       C  0.78513047  0.30312412  0.58320735     0.80100
O1495       O  0.68830137  0.48848956  0.59380818    -0.69000
O1496       O  0.66194734  0.43247953  0.65615244    -0.69200
O1497       O  0.66194653  0.43248374  0.59381528    -0.69100
O1498       O  0.68830167  0.48848547  0.65616914    -0.69100
O1499       O  0.64817041  0.48611295  0.65624614    -0.69100
O1500       O  0.62175844  0.42999213  0.59376071    -0.69100
O1501       O  0.62175906  0.42998759  0.65621675    -0.69000
O1502       O  0.64817020  0.48611736  0.59374016    -0.69200
V1503       V  0.67433511  0.46044392  0.62498637     1.35200
V1504       V  0.63573461  0.45810235  0.62499090     1.35200
C1505       C  0.67269887  0.49671650  0.58318117     0.80200
C1506       C  0.63743313  0.42179004  0.66673564     0.80300
C1507       C  0.63743212  0.42179595  0.58323521     0.80100
C1508       C  0.67269923  0.49671113  0.66680191     0.80100
O1509       O  0.50666990  0.27724815  0.90615418    -0.69000
O1510       O  0.95066949  0.25090575  0.84380922    -0.69200
O1511       O  0.50666924  0.27724557  0.84381853    -0.69100
O1512       O  0.95067000  0.25090840  0.90616926    -0.69100
O1513       O  0.95305773  0.29105086  0.90624030    -0.69100
O1514       O  0.50917720  0.31744531  0.84375664    -0.69100
O1515       O  0.95305724  0.29104825  0.84373419    -0.69200
O1516       O  0.50917796  0.31744795  0.90621218    -0.69200
V1517       V  0.97871053  0.26486639  0.87498779     1.35200
V1518       V  0.98106731  0.30347792  0.87498587     1.35200
C1519       C  0.51736721  0.30176661  0.91673309     0.80200
C1520       C  0.94245129  0.26651541  0.83317910     0.80300
C1521       C  0.51736609  0.30176309  0.83323668     0.80100
C1522       C  0.94245186  0.26651887  0.91679819     0.80100
O1523       O  0.68805858  0.14158537  0.84380756    -0.69000
O1524       O  0.66048695  0.16915261  0.90618098    -0.69200
O1525       O  0.68806284  0.14158957  0.90617880    -0.69100
O1526       O  0.66048311  0.16914886  0.84380983    -0.69100
O1527       O  0.62082744  0.12953206  0.84375996    -0.69100
O1528       O  0.64845679  0.10192324  0.90624020    -0.69100
O1529       O  0.62083147  0.12953566  0.90624210    -0.69000
O1530       O  0.64845238  0.10191914  0.84375792    -0.69200
V1531       V  0.67349423  0.15459023  0.87499441     1.35200
V1532       V  0.63540419  0.11648988  0.87499994     1.35200
C1533       C  0.67291769  0.11713753  0.83320210     0.80200
C1534       C  0.63604360  0.15400565  0.91679189     0.80300
C1535       C  0.67292356  0.11714314  0.91678936     0.80100
C1536       C  0.63603847  0.15400083  0.83320518     0.80100
C1537       C  0.76479104  0.38388345  0.95937406    -0.10500
C1538       C  0.77516727  0.40234741  0.94033906    -0.12100
C1539       C  0.76408750  0.32116370  0.54075462    -0.10500
C1540       C  0.77448762  0.31340496  0.55973489    -0.12100
C1541       C  0.62757075  0.40049381  0.55984019    -0.10500
C1542       C  0.61996791  0.38206575  0.54090131    -0.12100
C1543       C  0.55710716  0.31922085  0.95904809    -0.10500
C1544       C  0.53867432  0.31162405  0.94011921    -0.12100
C1545       C  0.90277199  0.24591919  0.79061967    -0.10500
C1546       C  0.92123323  0.25629355  0.80965525    -0.12100
C1547       C  0.84006474  0.24522802  0.70923978    -0.10500
C1548       C  0.83230293  0.25562655  0.69026054    -0.12100
C1549       C  0.68355743  0.10685352  0.80972819    -0.10500
C1550       C  0.69395797  0.09909302  0.79074914    -0.12100
C1551       C  0.69329295  0.03638879  0.70936928    -0.10500
C1552       C  0.68292332  0.01792828  0.69033000    -0.12100
C1553       C  0.76478791  0.38388174  0.79063698    -0.10500
C1554       C  0.77516264  0.40234594  0.80967156    -0.12100
C1555       C  0.76409864  0.32116701  0.70925558    -0.10500
C1556       C  0.77449652  0.31340711  0.69027243    -0.12100
C1557       C  0.61997179  0.38205589  0.70906469    -0.10500
C1558       C  0.62757293  0.40048495  0.69012722    -0.12100
C1559       C  0.55710565  0.31921434  0.79091906    -0.10500
C1560       C  0.53867243  0.31161861  0.80984858    -0.12100
C1561       C  0.90277352  0.24592535  0.95936188    -0.10500
C1562       C  0.92123434  0.25629908  0.94032425    -0.12100
C1563       C  0.84006160  0.24523000  0.54074545    -0.10500
C1564       C  0.83229781  0.25562666  0.55972580    -0.12100
C1565       C  0.90097285  0.10108909  0.54092961    -0.10500
C1566       C  0.91940181  0.10868653  0.55986359    -0.12100
C1567       C  0.83052563  0.01979670  0.94014337    -0.10500
C1568       C  0.83812722  0.03822915  0.95907647    -0.12100
C1569       C  0.91939960  0.10868301  0.69014275    -0.10500
C1570       C  0.90096947  0.10108521  0.70907658    -0.12100
C1571       C  0.83811950  0.03822768  0.79093123    -0.10500
C1572       C  0.83051989  0.01979591  0.80986494    -0.12100
C1573       C  0.53683475  0.16400373  0.55966335    -0.10500
C1574       C  0.55529275  0.17437371  0.54062219    -0.12100
C1575       C  0.62575717  0.16464397  0.94026448    -0.10500
C1576       C  0.61799381  0.17504395  0.95924104    -0.12100
C1577       C  0.69396986  0.09910423  0.95923852    -0.10500
C1578       C  0.68356702  0.10686244  0.94026115    -0.12100
C1579       C  0.69329499  0.03639724  0.54061717    -0.10500
C1580       C  0.68292310  0.01793587  0.55965558    -0.12100
C1581       C  0.55529157  0.17437032  0.70937768    -0.10500
C1582       C  0.53683321  0.16400088  0.69033829    -0.12100
C1583       C  0.62575002  0.16463678  0.80973342    -0.10500
C1584       C  0.61798775  0.17503679  0.79075663    -0.12100
C1585       C  0.60984823  0.68952177  0.26959453     0.05900
C1586       C  0.62499277  0.71882143  0.26918510    -0.10300
C1587       C  0.61645506  0.73340779  0.25012507     0.03400
C1588       C  0.59292440  0.71845253  0.23104001    -0.08800
C1589       C  0.57832374  0.68916472  0.23056693     0.05900
C1590       C  0.58661910  0.67463981  0.25006413    -0.08200
H1591       H  0.64300154  0.73026532  0.28425076     0.11500
H1592       H  0.58639917  0.72961576  0.21598748     0.09000
H1593       H  0.57509732  0.65195452  0.25004106     0.08900
C1594       C  0.70845202  0.59096453  0.48040317     0.05900
C1595       C  0.73774898  0.60611300  0.48081832    -0.10300
C1596       C  0.75233161  0.59757350  0.49988098     0.03400
C1597       C  0.73737554  0.57403788  0.01896288    -0.08800
C1598       C  0.70809061  0.55943380  0.01943024     0.05900
C1599       C  0.69356940  0.56773034  0.99993054    -0.08200
H1600       H  0.74919367  0.62412579  0.46575487     0.11500
H1601       H  0.74853583  0.56751162  0.03401784     0.09000
H1602       H  0.67088616  0.55620569  0.99994961     0.08900
C1603       C  0.60985114  0.68952789  0.48040172     0.05900
C1604       C  0.58662233  0.67464502  0.99993436    -0.10300
C1605       C  0.57832392  0.68916896  0.01943008     0.03400
C1606       C  0.59292093  0.71845654  0.01895343    -0.08800
C1607       C  0.61645135  0.73341262  0.49986644     0.05900
C1608       C  0.62499233  0.71882755  0.48080765    -0.08200
H1609       H  0.57510322  0.65195988  0.99996039     0.11500
H1610       H  0.58639370  0.72961908  0.03400517     0.09000
H1611       H  0.64300151  0.73027240  0.46574079     0.08900
C1612       C  0.84646554  0.56108835  0.26966580     0.05900
C1613       C  0.86950493  0.56969738  0.25000459    -0.10300
C1614       C  0.87811023  0.59273720  0.23034240     0.03400
C1615       C  0.86399101  0.60741433  0.23075772    -0.08800
C1616       C  0.84062516  0.59857114  0.25000302     0.05900
C1617       C  0.83178570  0.57520464  0.26924899    -0.08200
H1618       H  0.88065597  0.55854815  0.25000475     0.11500
H1619       H  0.87075611  0.62528042  0.21556855     0.09000
H1620       H  0.81391965  0.56843641  0.28443733     0.08900
C1621       C  0.87811538  0.59274131  0.01966259     0.05900
C1622       C  0.86951062  0.56970023  0.00000230    -0.10300
C1623       C  0.84647327  0.56109128  0.48034011     0.03400
C1624       C  0.83179467  0.57520884  0.48075418    -0.08800
C1625       C  0.84063289  0.59857618  0.99999779     0.05900
C1626       C  0.86399700  0.60741939  0.01924410    -0.08200
H1627       H  0.88066063  0.55855025  0.00000418     0.11500
H1628       H  0.81392999  0.56844049  0.46556550     0.09000
H1629       H  0.87076139  0.62528646  0.03443165     0.08900
C1630       C  0.82551182  0.61369331  0.49999555     0.83000
N1631       N  0.83988845  0.64209827  0.50007169    -0.75300
C1632       C  0.82598550  0.65611734  0.50006944     0.85400
N1633       N  0.79758552  0.64160977  0.49998765    -0.75300
C1634       C  0.78308537  0.61320718  0.49990964     0.85500
N1635       N  0.79710946  0.59930934  0.49991522    -0.77000
C1636       C  0.84820632  0.73075221  0.01957810     0.05900
C1637       C  0.83306614  0.70145261  0.01916189    -0.10300
C1638       C  0.84161048  0.68687371  0.50009717     0.03400
C1639       C  0.86514274  0.70183606  0.48101424    -0.08800
C1640       C  0.87973900  0.73112382  0.48054817     0.05900
C1641       C  0.87143756  0.74564150  0.50004983    -0.08200
H1642       H  0.81505579  0.69000274  0.03422630     0.11500
H1643       H  0.87167308  0.69067842  0.46595859     0.09000
H1644       H  0.88295658  0.76832707  0.50003224     0.08900
O1645       O  0.50740208  0.66939563  0.09382216    -0.69000
O1646       O  0.95140144  0.64305672  0.15617174    -0.69200
O1647       O  0.50740083  0.66939400  0.15618274    -0.69100
O1648       O  0.95140257  0.64305841  0.09383522    -0.69100
O1649       O  0.94889252  0.60285773  0.09377425    -0.69100
O1650       O  0.50501093  0.62925057  0.15625409    -0.69100
O1651       O  0.94889151  0.60285604  0.15623006    -0.69000
O1652       O  0.50501198  0.62925204  0.09374774    -0.69200
V1653       V  0.97936082  0.65543678  0.12500296     1.35200
V1654       V  0.97700198  0.61682433  0.12500159     1.35200
C1655       C  0.51561872  0.65378457  0.08319120     0.80200
C1656       C  0.94070398  0.61853863  0.16675224     0.80300
C1657       C  0.51561727  0.65378252  0.16681178     0.80100
C1658       C  0.94070536  0.61854084  0.08325367     0.80100
C1659       C  0.61162138  0.85919887  0.23033671     0.05900
C1660       C  0.58857955  0.85059530  0.24999247    -0.10300
C1661       C  0.57996864  0.82755772  0.26966002     0.03400
C1662       C  0.59408506  0.81287759  0.26925570    -0.08800
C1663       C  0.61745326  0.82171543  0.25001577     0.05900
C1664       C  0.62629827  0.84507976  0.23076449    -0.08200
H1665       H  0.57743056  0.86174661  0.24998336     0.11500
H1666       H  0.58731510  0.79501249  0.28444844     0.09000
H1667       H  0.64416593  0.85184356  0.21557977     0.08900
C1668       C  0.63256934  0.80659354  0.25002450     0.83000
N1669       N  0.66097147  0.82097274  0.24994976    -0.75300
C1670       C  0.67499077  0.80707019  0.24994987     0.85400
N1671       N  0.66048594  0.77866740  0.25002678    -0.75300
C1672       C  0.63208584  0.76416450  0.25010297     0.85500
N1673       N  0.61818790  0.77818856  0.25009993    -0.77000
C1674       C  0.74962072  0.82930742  0.23042739     0.05900
C1675       C  0.72032389  0.81415867  0.23085184    -0.10300
C1676       C  0.70574441  0.82269967  0.24991925     0.03400
C1677       C  0.72070364  0.84623685  0.26899753    -0.08800
C1678       C  0.74998881  0.86084163  0.26945564     0.05900
C1679       C  0.76450685  0.85254358  0.24995073    -0.08200
H1680       H  0.70887664  0.79614556  0.21579008     0.11500
H1681       H  0.70954577  0.85276532  0.28405460     0.09000
H1682       H  0.78719015  0.86406906  0.24996198     0.08900
C1683       C  0.70844177  0.59095445  0.26958363     0.05900
C1684       C  0.73773867  0.60610488  0.26916790    -0.10300
C1685       C  0.75232392  0.59756746  0.25010523     0.03400
C1686       C  0.73737050  0.57403171  0.23102356    -0.08800
C1687       C  0.70808544  0.55942529  0.23055656     0.05900
C1688       C  0.69356149  0.56771995  0.25005658    -0.08200
H1689       H  0.74918139  0.62411731  0.28423173     0.11500
H1690       H  0.74853307  0.56750675  0.21596906     0.09000
H1691       H  0.67087794  0.55619362  0.25003796     0.08900
C1692       C  0.82550389  0.61368794  0.25000173     0.83000
N1693       N  0.83988052  0.64209282  0.24992413    -0.75300
C1694       C  0.82597793  0.65611221  0.24992156     0.85400
N1695       N  0.79757779  0.64160466  0.24999970    -0.75300
C1696       C  0.78307765  0.61320187  0.25007881     0.85500
N1697       N  0.79710168  0.59930402  0.25007834    -0.77000
C1698       C  0.84820636  0.73074870  0.23040776     0.05900
C1699       C  0.87143786  0.74563677  0.24993351    -0.10300
C1700       C  0.87973653  0.73111809  0.26943599     0.03400
C1701       C  0.86513695  0.70183030  0.26897313    -0.08800
C1702       C  0.84160418  0.68686885  0.24989257     0.05900
C1703       C  0.83306272  0.70144900  0.23082727    -0.08200
H1704       H  0.88295924  0.76832203  0.24994852     0.11500
H1705       H  0.87166544  0.69067196  0.28402908     0.09000
H1706       H  0.81505255  0.69000021  0.21576449     0.08900
C1707       C  0.61161804  0.85920784  0.01963073     0.05900
C1708       C  0.58857876  0.85060443  0.99997290    -0.10300
C1709       C  0.57996853  0.82756505  0.48030826     0.03400
C1710       C  0.59408346  0.81288325  0.48071780    -0.08800
C1711       C  0.61744917  0.82172098  0.49995988     0.05900
C1712       C  0.62629296  0.84508676  0.01920780    -0.08200
H1713       H  0.57743075  0.86175682  0.99997878     0.11500
H1714       H  0.58731400  0.79501656  0.46552810     0.09000
H1715       H  0.64415831  0.85185027  0.03439446     0.08900
C1716       C  0.63256457  0.80659803  0.49995778     0.83000
N1717       N  0.66096682  0.82097685  0.50004171    -0.75300
C1718       C  0.67498600  0.80707414  0.50005086     0.85400
N1719       N  0.66048097  0.77867160  0.49997331    -0.75300
C1720       C  0.63208101  0.76416898  0.49988790     0.85500
N1721       N  0.61818288  0.77819297  0.49988236    -0.77000
C1722       C  0.74961199  0.82930628  0.01958343     0.05900
C1723       C  0.72031501  0.81415934  0.01915708    -0.10300
C1724       C  0.70573968  0.82270295  0.50008784     0.03400
C1725       C  0.72070310  0.84624090  0.48101078    -0.08800
C1726       C  0.74998796  0.86084350  0.48055506     0.05900
C1727       C  0.76450187  0.85254303  0.50006102    -0.08200
H1728       H  0.70886458  0.79614492  0.03421741     0.11500
H1729       H  0.70954866  0.85277095  0.46595162     0.09000
H1730       H  0.78718507  0.86406708  0.50005099     0.08900
O1731       O  0.83633256  0.99029151  0.34377414    -0.69000
O1732       O  0.80992141  0.93416576  0.40625551    -0.69200
O1733       O  0.80991908  0.93416542  0.34374987    -0.69100
O1734       O  0.83633512  0.99029175  0.40622985    -0.69100
O1735       O  0.79614759  0.98780141  0.40617470    -0.69100
O1736       O  0.76978861  0.93179466  0.34382686    -0.69100
O1737       O  0.76979097  0.93179524  0.40618711    -0.69000
O1738       O  0.79614495  0.98780091  0.34383845    -0.69200
V1739       V  0.82235701  0.96217878  0.37500240     1.35200
V1740       V  0.78375718  0.95983867  0.37500669     1.35200
C1741       C  0.82065899  0.99848958  0.33325509     0.80200
C1742       C  0.78539280  0.92356760  0.41681444     0.80300
C1743       C  0.78538966  0.92356679  0.33319556     0.80100
C1744       C  0.82066250  0.99849006  0.41675339     0.80100
O1745       O  0.83722322  0.79073225  0.09375232    -0.69000
O1746       O  0.80960099  0.81834453  0.15623993    -0.69200
O1747       O  0.83722658  0.79073237  0.15623469    -0.69100
O1748       O  0.80959705  0.81834387  0.09375736    -0.69100
O1749       O  0.76999141  0.77867720  0.09381675    -0.69100
O1750       O  0.79757123  0.75111530  0.15618280    -0.69100
O1751       O  0.76999518  0.77867809  0.15618827    -0.69000
O1752       O  0.79756815  0.75111499  0.09381153    -0.69200
V1753       V  0.82264979  0.80377590  0.12499613     1.35200
V1754       V  0.78456014  0.76567530  0.12499972     1.35200
C1755       C  0.82201140  0.76626289  0.08320075     0.80200
C1756       C  0.78513587  0.80312519  0.16679569     0.80300
C1757       C  0.82201548  0.76626313  0.16678838     0.80100
C1758       C  0.78513052  0.80312410  0.08320736     0.80100
O1759       O  0.68830144  0.98848966  0.09380814    -0.69000
O1760       O  0.66194729  0.93247949  0.15615234    -0.69200
O1761       O  0.66194650  0.93248384  0.09381523    -0.69100
O1762       O  0.68830177  0.98848549  0.15616914    -0.69100
O1763       O  0.64817046  0.98611302  0.15624616    -0.69100
O1764       O  0.62175833  0.92999211  0.09376077    -0.69100
O1765       O  0.62175905  0.92998766  0.15621681    -0.69000
O1766       O  0.64817023  0.98611739  0.09374017    -0.69200
V1767       V  0.67433511  0.96044393  0.12498635     1.35200
V1768       V  0.63573458  0.95810237  0.12499092     1.35200
C1769       C  0.67269891  0.99671661  0.08318119     0.80200
C1770       C  0.63743312  0.92179009  0.16673564     0.80300
C1771       C  0.63743209  0.92179609  0.08323515     0.80100
C1772       C  0.67269924  0.99671104  0.16680206     0.80100
O1773       O  0.50666983  0.77724809  0.40615433    -0.69000
O1774       O  0.95066957  0.75090582  0.34380939    -0.69200
O1775       O  0.50666929  0.77724555  0.34381857    -0.69100
O1776       O  0.95066999  0.75090842  0.40616937    -0.69100
O1777       O  0.95305777  0.79105087  0.40624018    -0.69100
O1778       O  0.50917723  0.81744532  0.34375668    -0.69100
O1779       O  0.95305719  0.79104818  0.34373419    -0.69200
O1780       O  0.50917798  0.81744789  0.40621210    -0.69200
V1781       V  0.97871057  0.76486647  0.37498786     1.35200
V1782       V  0.98106731  0.80347788  0.37498582     1.35200
C1783       C  0.51736717  0.80176654  0.41673315     0.80200
C1784       C  0.94245129  0.76651538  0.33317915     0.80300
C1785       C  0.51736606  0.80176306  0.33323668     0.80100
C1786       C  0.94245192  0.76651892  0.41679821     0.80100
O1787       O  0.68805865  0.64158542  0.34380754    -0.69000
O1788       O  0.66048683  0.66915254  0.40618083    -0.69200
O1789       O  0.68806289  0.64158961  0.40617872    -0.69100
O1790       O  0.66048296  0.66914875  0.34380973    -0.69100
O1791       O  0.62082739  0.62953209  0.34375997    -0.69100
O1792       O  0.64845683  0.60192323  0.40624013    -0.69100
O1793       O  0.62083130  0.62953560  0.40624211    -0.69000
O1794       O  0.64845244  0.60191925  0.34375779    -0.69200
V1795       V  0.67349422  0.65459025  0.37499434     1.35200
V1796       V  0.63540420  0.61648991  0.37499992     1.35200
C1797       C  0.67291773  0.61713763  0.33320196     0.80200
C1798       C  0.63604349  0.65400559  0.41679185     0.80300
C1799       C  0.67292361  0.61714314  0.41678928     0.80100
C1800       C  0.63603842  0.65400076  0.33320500     0.80100
C1801       C  0.76479099  0.88388340  0.45937413    -0.10500
C1802       C  0.77516712  0.90234732  0.44033902    -0.12100
C1803       C  0.76408739  0.82116370  0.04075467    -0.10500
C1804       C  0.77448757  0.81340491  0.05973485    -0.12100
C1805       C  0.62757064  0.90049388  0.05984026    -0.10500
C1806       C  0.61996801  0.88206581  0.04090140    -0.12100
C1807       C  0.55710713  0.81922080  0.45904815    -0.10500
C1808       C  0.53867423  0.81162390  0.44011933    -0.12100
C1809       C  0.90277195  0.74591914  0.29061969    -0.10500
C1810       C  0.92123318  0.75629354  0.30965528    -0.12100
C1811       C  0.84006482  0.74522814  0.20923989    -0.10500
C1812       C  0.83230294  0.75562655  0.19026057    -0.12100
C1813       C  0.68355748  0.60685349  0.30972820    -0.10500
C1814       C  0.69395802  0.59909309  0.29074904    -0.12100
C1815       C  0.69329302  0.53638876  0.20936938    -0.10500
C1816       C  0.68292335  0.51792826  0.19033011    -0.12100
C1817       C  0.76478791  0.88388172  0.29063697    -0.10500
C1818       C  0.77516258  0.90234591  0.30967158    -0.12100
C1819       C  0.76409869  0.82116693  0.20925562    -0.10500
C1820       C  0.77449667  0.81340716  0.19027247    -0.12100
C1821       C  0.61997187  0.88205595  0.20906472    -0.10500
C1822       C  0.62757293  0.90048498  0.19012724    -0.12100
C1823       C  0.55710561  0.81921436  0.29091906    -0.10500
C1824       C  0.53867241  0.81161855  0.30984864    -0.12100
C1825       C  0.90277366  0.74592545  0.45936193    -0.10500
C1826       C  0.92123433  0.75629902  0.44032412    -0.12100
C1827       C  0.84006160  0.74522991  0.04074550    -0.10500
C1828       C  0.83229783  0.75562664  0.05972575    -0.12100
C1829       C  0.90097291  0.60108922  0.04092963    -0.10500
C1830       C  0.91940181  0.60868646  0.05986370    -0.12100
C1831       C  0.83052565  0.51979670  0.44014333    -0.10500
C1832       C  0.83812719  0.53822916  0.45907640    -0.12100
C1833       C  0.91939957  0.60868299  0.19014265    -0.10500
C1834       C  0.90096950  0.60108523  0.20907661    -0.12100
C1835       C  0.83811956  0.53822768  0.29093127    -0.10500
C1836       C  0.83051996  0.51979588  0.30986491    -0.12100
C1837       C  0.53683473  0.66400368  0.05966345    -0.10500
C1838       C  0.55529270  0.67437373  0.04062218    -0.12100
C1839       C  0.62575705  0.66464390  0.44026442    -0.10500
C1840       C  0.61799372  0.67504388  0.45924101    -0.12100
C1841       C  0.69396990  0.59910424  0.45923853    -0.10500
C1842       C  0.68356702  0.60686237  0.44026112    -0.12100
C1843       C  0.69329498  0.53639730  0.04061721    -0.10500
C1844       C  0.68292303  0.51793589  0.05965559    -0.12100
C1845       C  0.55529152  0.67437028  0.20937746    -0.10500
C1846       C  0.53683308  0.66400072  0.19033816    -0.12100
C1847       C  0.62575003  0.66463687  0.30973339    -0.10500
C1848       C  0.61798765  0.67503675  0.29075661    -0.12100
C1849       C  0.60984823  0.68952181  0.76959466     0.05900
C1850       C  0.62499285  0.71882149  0.76918520    -0.10300
C1851       C  0.61645501  0.73340782  0.75012529     0.03400
C1852       C  0.59292439  0.71845253  0.73104004    -0.08800
C1853       C  0.57832373  0.68916475  0.73056699     0.05900
C1854       C  0.58661904  0.67463984  0.75006420    -0.08200
H1855       H  0.64300160  0.73026542  0.78425121     0.11500
H1856       H  0.58639909  0.72961574  0.71598753     0.09000
H1857       H  0.57509725  0.65195454  0.75004110     0.08900
C1858       C  0.70845220  0.59096471  0.98040319     0.05900
C1859       C  0.73774913  0.60611310  0.98081814    -0.10300
C1860       C  0.75233169  0.59757356  0.99988085     0.03400
C1861       C  0.73737543  0.57403781  0.51896293    -0.08800
C1862       C  0.70809047  0.55943372  0.51943018     0.05900
C1863       C  0.69356922  0.56773025  0.49993053    -0.08200
H1864       H  0.74919391  0.62412592  0.96575441     0.11500
H1865       H  0.74853558  0.56751125  0.53401750     0.09000
H1866       H  0.67088585  0.55620533  0.49994937     0.08900
C1867       C  0.60985117  0.68952797  0.98040168     0.05900
C1868       C  0.58662225  0.67464489  0.49993435    -0.10300
C1869       C  0.57832385  0.68916883  0.51943010     0.03400
C1870       C  0.59292085  0.71845648  0.51895342    -0.08800
C1871       C  0.61645129  0.73341262  0.99986638     0.05900
C1872       C  0.62499226  0.71882757  0.98080767    -0.08200
H1873       H  0.57510317  0.65195934  0.49996070     0.11500
H1874       H  0.58639367  0.72961912  0.53400549     0.09000
H1875       H  0.64300117  0.73027244  0.96574082     0.08900
C1876       C  0.84646553  0.56108837  0.76966587     0.05900
C1877       C  0.86950490  0.56969734  0.75000470    -0.10300
C1878       C  0.87811028  0.59273722  0.73034245     0.03400
C1879       C  0.86399106  0.60741439  0.73075771    -0.08800
C1880       C  0.84062514  0.59857118  0.75000295     0.05900
C1881       C  0.83178573  0.57520470  0.76924905    -0.08200
H1882       H  0.88065595  0.55854808  0.75000517     0.11500
H1883       H  0.87075610  0.62528049  0.71556812     0.09000
H1884       H  0.81391957  0.56843627  0.78443734     0.08900
C1885       C  0.87811551  0.59274132  0.51966263     0.05900
C1886       C  0.86951077  0.56970020  0.50000227    -0.10300
C1887       C  0.84647312  0.56109128  0.98033998     0.03400
C1888       C  0.83179446  0.57520872  0.98075403    -0.08800
C1889       C  0.84063309  0.59857630  0.49999808     0.05900
C1890       C  0.86399721  0.60741951  0.51924427    -0.08200
H1891       H  0.88066081  0.55855007  0.50000402     0.11500
H1892       H  0.81392972  0.56844039  0.96556487     0.09000
H1893       H  0.87076167  0.62528664  0.53443217     0.08900
C1894       C  0.82551177  0.61369330  0.99999546     0.83000
N1895       N  0.83988846  0.64209829  0.00007170    -0.75300
C1896       C  0.82598548  0.65611739  0.00006934     0.85400
N1897       N  0.79758550  0.64160978  0.99998765    -0.75300
C1898       C  0.78308536  0.61320720  0.99990955     0.85500
N1899       N  0.79710941  0.59930933  0.99991510    -0.77000
C1900       C  0.84820647  0.73075227  0.51957801     0.05900
C1901       C  0.83306618  0.70145261  0.51916169    -0.10300
C1902       C  0.84161037  0.68687377  0.00009721     0.03400
C1903       C  0.86514268  0.70183614  0.98101432    -0.08800
C1904       C  0.87973888  0.73112383  0.98054820     0.05900
C1905       C  0.87143745  0.74564146  0.00004992    -0.08200
H1906       H  0.81505610  0.69000290  0.53422611     0.11500
H1907       H  0.87167299  0.69067848  0.96595864     0.09000
H1908       H  0.88295612  0.76832700  0.00003195     0.08900
O1909       O  0.50740217  0.66939569  0.59382225    -0.69000
O1910       O  0.95140145  0.64305675  0.65617171    -0.69200
O1911       O  0.50740090  0.66939407  0.65618283    -0.69100
O1912       O  0.95140258  0.64305840  0.59383535    -0.69100
O1913       O  0.94889257  0.60285771  0.59377409    -0.69100
O1914       O  0.50501093  0.62925050  0.65625402    -0.69100
O1915       O  0.94889146  0.60285604  0.65622999    -0.69000
O1916       O  0.50501193  0.62925196  0.59374772    -0.69200
V1917       V  0.97936089  0.65543685  0.62500297     1.35200
V1918       V  0.97700200  0.61682435  0.62500152     1.35200
C1919       C  0.51561874  0.65378455  0.58319125     0.80200
C1920       C  0.94070400  0.61853866  0.66675226     0.80300
C1921       C  0.51561733  0.65378251  0.66681178     0.80100
C1922       C  0.94070533  0.61854082  0.58325370     0.80100
C1923       C  0.61162135  0.85919883  0.73033659     0.05900
C1924       C  0.58857952  0.85059530  0.74999240    -0.10300
C1925       C  0.57996860  0.82755774  0.76965995     0.03400
C1926       C  0.59408500  0.81287759  0.76925563    -0.08800
C1927       C  0.61745326  0.82171543  0.75001573     0.05900
C1928       C  0.62629830  0.84507974  0.73076439    -0.08200
H1929       H  0.57743045  0.86174658  0.74998309     0.11500
H1930       H  0.58731506  0.79501250  0.78444839     0.09000
H1931       H  0.64416584  0.85184333  0.71557938     0.08900
C1932       C  0.63256931  0.80659351  0.75002442     0.83000
N1933       N  0.66097147  0.82097278  0.74994985    -0.75300
C1934       C  0.67499078  0.80707023  0.74994998     0.85400
N1935       N  0.66048595  0.77866745  0.75002689    -0.75300
C1936       C  0.63208584  0.76416450  0.75010294     0.85500
N1937       N  0.61818787  0.77818851  0.75009995    -0.77000
C1938       C  0.74962065  0.82930739  0.73042737     0.05900
C1939       C  0.72032380  0.81415861  0.73085181    -0.10300
C1940       C  0.70574440  0.82269959  0.74991932     0.03400
C1941       C  0.72070364  0.84623681  0.76899744    -0.08800
C1942       C  0.74998881  0.86084164  0.76945561     0.05900
C1943       C  0.76450681  0.85254361  0.74995065    -0.08200
H1944       H  0.70887654  0.79614546  0.71579021     0.11500
H1945       H  0.70954568  0.85276501  0.78405468     0.09000
H1946       H  0.78719011  0.86406916  0.74996180     0.08900
C1947       C  0.70844188  0.59095453  0.76958356     0.05900
C1948       C  0.73773875  0.60610487  0.76916778    -0.10300
C1949       C  0.75232399  0.59756740  0.75010512     0.03400
C1950       C  0.73737060  0.57403170  0.73102344    -0.08800
C1951       C  0.70808559  0.55942536  0.73055650     0.05900
C1952       C  0.69356164  0.56772006  0.75005657    -0.08200
H1953       H  0.74918147  0.62411734  0.78423116     0.11500
H1954       H  0.74853314  0.56750665  0.71596905     0.09000
H1955       H  0.67087846  0.55619392  0.75003800     0.08900
C1956       C  0.82550385  0.61368794  0.75000175     0.83000
N1957       N  0.83988048  0.64209282  0.74992406    -0.75300
C1958       C  0.82597787  0.65611219  0.74992150     0.85400
N1959       N  0.79757777  0.64160463  0.74999960    -0.75300
C1960       C  0.78307765  0.61320185  0.75007881     0.85500
N1961       N  0.79710167  0.59930400  0.75007830    -0.77000
C1962       C  0.84820631  0.73074859  0.73040763     0.05900
C1963       C  0.87143783  0.74563672  0.74993348    -0.10300
C1964       C  0.87973648  0.73111808  0.76943597     0.03400
C1965       C  0.86513681  0.70183029  0.76897306    -0.08800
C1966       C  0.84160402  0.68686878  0.74989243     0.05900
C1967       C  0.83306260  0.70144889  0.73082711    -0.08200
H1968       H  0.88295930  0.76832199  0.74994838     0.11500
H1969       H  0.87166524  0.69067198  0.78402905     0.09000
H1970       H  0.81505243  0.68999999  0.71576393     0.08900
C1971       C  0.61161805  0.85920784  0.51963064     0.05900
C1972       C  0.58857875  0.85060443  0.49997279    -0.10300
C1973       C  0.57996859  0.82756510  0.98030825     0.03400
C1974       C  0.59408350  0.81288323  0.98071779    -0.08800
C1975       C  0.61744921  0.82172098  0.99995981     0.05900
C1976       C  0.62629306  0.84508687  0.51920777    -0.08200
H1977       H  0.57743085  0.86175689  0.49997839     0.11500
H1978       H  0.58731444  0.79501701  0.96552764     0.09000
H1979       H  0.64415838  0.85185039  0.53439448     0.08900
C1980       C  0.63256457  0.80659801  0.99995782     0.83000
N1981       N  0.66096679  0.82097686  0.00004167    -0.75300
C1982       C  0.67498592  0.80707409  0.00005078     0.85400
N1983       N  0.66048092  0.77867154  0.99997334    -0.75300
C1984       C  0.63208098  0.76416894  0.99988805     0.85500
N1985       N  0.61818290  0.77819295  0.99988232    -0.77000
C1986       C  0.74961199  0.82930629  0.51958348     0.05900
C1987       C  0.72031507  0.81415931  0.51915706    -0.10300
C1988       C  0.70573956  0.82270291  0.00008783     0.03400
C1989       C  0.72070296  0.84624078  0.98101071    -0.08800
C1990       C  0.74998796  0.86084351  0.98055503     0.05900
C1991       C  0.76450194  0.85254304  0.00006106    -0.08200
H1992       H  0.70886465  0.79614485  0.53421728     0.11500
H1993       H  0.70954832  0.85277085  0.96595153     0.09000
H1994       H  0.78718531  0.86406695  0.00005111     0.08900
O1995       O  0.83633254  0.99029149  0.84377422    -0.69000
O1996       O  0.80992136  0.93416572  0.90625544    -0.69200
O1997       O  0.80991898  0.93416538  0.84374976    -0.69100
O1998       O  0.83633503  0.99029165  0.90622982    -0.69100
O1999       O  0.79614751  0.98780135  0.90617481    -0.69100
O2000       O  0.76978854  0.93179466  0.84382695    -0.69100
O2001       O  0.76979102  0.93179524  0.90618717    -0.69000
O2002       O  0.79614496  0.98780097  0.84383844    -0.69200
V2003       V  0.82235695  0.96217871  0.87500238     1.35200
V2004       V  0.78375718  0.95983869  0.87500673     1.35200
C2005       C  0.82065896  0.99848953  0.83325505     0.80200
C2006       C  0.78539279  0.92356754  0.91681438     0.80300
C2007       C  0.78538959  0.92356684  0.83319547     0.80100
C2008       C  0.82066245  0.99849002  0.91675340     0.80100
O2009       O  0.83722334  0.79073238  0.59375239    -0.69000
O2010       O  0.80960097  0.81834454  0.65623995    -0.69200
O2011       O  0.83722658  0.79073242  0.65623480    -0.69100
O2012       O  0.80959707  0.81834392  0.59375732    -0.69100
O2013       O  0.76999140  0.77867725  0.59381666    -0.69100
O2014       O  0.79757117  0.75111537  0.65618271    -0.69100
O2015       O  0.76999511  0.77867812  0.65618818    -0.69000
O2016       O  0.79756814  0.75111507  0.59381153    -0.69200
V2017       V  0.82264983  0.80377596  0.62499616     1.35200
V2018       V  0.78456009  0.76567533  0.62499968     1.35200
C2019       C  0.82201147  0.76626299  0.58320084     0.80200
C2020       C  0.78513580  0.80312520  0.66679565     0.80300
C2021       C  0.82201545  0.76626313  0.66678832     0.80100
C2022       C  0.78513053  0.80312415  0.58320733     0.80100
O2023       O  0.68830142  0.98848961  0.59380819    -0.69000
O2024       O  0.66194720  0.93247952  0.65615241    -0.69200
O2025       O  0.66194653  0.93248376  0.59381536    -0.69100
O2026       O  0.68830175  0.98848552  0.65616911    -0.69100
O2027       O  0.64817048  0.98611301  0.65624611    -0.69100
O2028       O  0.62175843  0.92999216  0.59376074    -0.69100
O2029       O  0.62175901  0.92998763  0.65621669    -0.69000
O2030       O  0.64817023  0.98611741  0.59374014    -0.69200
V2031       V  0.67433514  0.96044394  0.62498639     1.35200
V2032       V  0.63573466  0.95810240  0.62499088     1.35200
C2033       C  0.67269889  0.99671649  0.58318111     0.80200
C2034       C  0.63743307  0.92179013  0.66673569     0.80300
C2035       C  0.63743216  0.92179606  0.58323518     0.80100
C2036       C  0.67269929  0.99671114  0.66680190     0.80100
O2037       O  0.50667002  0.77724818  0.90615421    -0.69000
O2038       O  0.95066956  0.75090587  0.84380927    -0.69200
O2039       O  0.50666925  0.77724559  0.84381854    -0.69100
O2040       O  0.95067003  0.75090842  0.90616929    -0.69100
O2041       O  0.95305768  0.79105085  0.90624026    -0.69100
O2042       O  0.50917723  0.81744534  0.84375668    -0.69100
O2043       O  0.95305722  0.79104826  0.84373419    -0.69200
O2044       O  0.50917798  0.81744790  0.90621218    -0.69200
V2045       V  0.97871056  0.76486644  0.87498779     1.35200
V2046       V  0.98106726  0.80347789  0.87498586     1.35200
C2047       C  0.51736728  0.80176660  0.91673309     0.80200
C2048       C  0.94245122  0.76651541  0.83317920     0.80300
C2049       C  0.51736611  0.80176312  0.83323668     0.80100
C2050       C  0.94245192  0.76651890  0.91679823     0.80100
O2051       O  0.68805870  0.64158549  0.84380753    -0.69000
O2052       O  0.66048691  0.66915260  0.90618104    -0.69200
O2053       O  0.68806295  0.64158964  0.90617880    -0.69100
O2054       O  0.66048310  0.66914885  0.84380987    -0.69100
O2055       O  0.62082749  0.62953211  0.84375999    -0.69100
O2056       O  0.64845691  0.60192331  0.90624024    -0.69100
O2057       O  0.62083145  0.62953565  0.90624211    -0.69000
O2058       O  0.64845253  0.60191925  0.84375790    -0.69200
V2059       V  0.67349423  0.65459024  0.87499443     1.35200
V2060       V  0.63540423  0.61648990  0.87499995     1.35200
C2061       C  0.67291783  0.61713764  0.83320208     0.80200
C2062       C  0.63604358  0.65400562  0.91679193     0.80300
C2063       C  0.67292371  0.61714318  0.91678933     0.80100
C2064       C  0.63603852  0.65400082  0.83320516     0.80100
C2065       C  0.76479103  0.88388345  0.95937411    -0.10500
C2066       C  0.77516721  0.90234739  0.94033904    -0.12100
C2067       C  0.76408747  0.82116371  0.54075457    -0.10500
C2068       C  0.77448755  0.81340497  0.55973492    -0.12100
C2069       C  0.62757075  0.90049380  0.55984022    -0.10500
C2070       C  0.61996799  0.88206575  0.54090130    -0.12100
C2071       C  0.55710717  0.81922089  0.95904806    -0.10500
C2072       C  0.53867428  0.81162394  0.94011923    -0.12100
C2073       C  0.90277194  0.74591915  0.79061970    -0.10500
C2074       C  0.92123323  0.75629356  0.80965523    -0.12100
C2075       C  0.84006478  0.74522805  0.70923981    -0.10500
C2076       C  0.83230292  0.75562652  0.69026051    -0.12100
C2077       C  0.68355751  0.60685357  0.80972817    -0.10500
C2078       C  0.69395794  0.59909299  0.79074906    -0.12100
C2079       C  0.69329299  0.53638879  0.70936932    -0.10500
C2080       C  0.68292326  0.51792831  0.69033002    -0.12100
C2081       C  0.76478793  0.88388176  0.79063693    -0.10500
C2082       C  0.77516259  0.90234597  0.80967152    -0.12100
C2083       C  0.76409864  0.82116699  0.70925551    -0.10500
C2084       C  0.77449654  0.81340714  0.69027237    -0.12100
C2085       C  0.61997181  0.88205590  0.70906462    -0.10500
C2086       C  0.62757292  0.90048495  0.69012717    -0.12100
C2087       C  0.55710569  0.81921442  0.79091899    -0.10500
C2088       C  0.53867248  0.81161864  0.80984855    -0.12100
C2089       C  0.90277353  0.74592541  0.95936185    -0.10500
C2090       C  0.92123434  0.75629910  0.94032419    -0.12100
C2091       C  0.84006164  0.74522995  0.54074547    -0.10500
C2092       C  0.83229791  0.75562675  0.55972576    -0.12100
C2093       C  0.90097288  0.60108912  0.54092962    -0.10500
C2094       C  0.91940188  0.60868652  0.55986355    -0.12100
C2095       C  0.83052560  0.51979667  0.94014333    -0.10500
C2096       C  0.83812716  0.53822908  0.95907648    -0.12100
C2097       C  0.91939959  0.60868300  0.69014270    -0.10500
C2098       C  0.90096947  0.60108515  0.70907662    -0.12100
C2099       C  0.83811947  0.53822765  0.79093131    -0.10500
C2100       C  0.83051985  0.51979588  0.80986498    -0.12100
C2101       C  0.53683471  0.66400364  0.55966341    -0.10500
C2102       C  0.55529268  0.67437374  0.54062217    -0.12100
C2103       C  0.62575714  0.66464391  0.94026442    -0.10500
C2104       C  0.61799378  0.67504394  0.95924091    -0.12100
C2105       C  0.69396990  0.59910424  0.95923856    -0.10500
C2106       C  0.68356706  0.60686249  0.94026125    -0.12100
C2107       C  0.69329496  0.53639723  0.54061715    -0.10500
C2108       C  0.68292297  0.51793583  0.55965553    -0.12100
C2109       C  0.55529156  0.67437030  0.70937757    -0.10500
C2110       C  0.53683319  0.66400075  0.69033820    -0.12100
C2111       C  0.62575001  0.66463676  0.80973354    -0.10500
C2112       C  0.61798765  0.67503670  0.79075675    -0.12100
loop_ 
_geom_bond_atom_site_label_1 
_geom_bond_atom_site_label_2 
_geom_bond_distance 
_geom_bond_site_symmetry_2 
_ccdc_geom_bond_type 
C1            C2   1.401       .  A
C1            C6   1.402       .  A
C1          C264   1.439       .  S
C2            C3   1.402       .  A
C2            H7   1.085       .  S
C3            C4   1.402       .  A
C3           C88   1.470       .  S
C4            C5   1.400       .  A
C4            H8   1.085       .  S
C5            C6   1.402       .  A
C5          C261   1.439       .  S
C6            H9   1.084       .  S
C10          C11   1.401       .  A
C10         C279   1.402       .  A
C10         C257   1.439       .  S
C11          C12   1.402       .  A
C11          H16   1.085       .  S
C12         C277   1.402       .  A
C12          C50   1.470       .  S
C13          C14   1.400       .  A
C13         C276   1.402   1_554  A
C13          H17   1.085       .  S
C14          C15   1.402   1_554  A
C14         C259   1.439       .  S
C15         C274   1.402       .  A
C15          H18   1.084       .  S
C19          C24   1.401       .  A
C19         C284   1.402       .  A
C19         C256   1.439       .  S
C20          C21   1.402   1_556  A
C20         C283   1.402       .  A
C20          H25   1.084       .  S
C21          C22   1.400       .  A
C21         C254   1.439       .  S
C22         C287   1.402   1_554  A
C22          H26   1.085       .  S
C23          C24   1.402       .  A
C23         C286   1.402       .  A
C23         C136   1.470       .  S
C24          H27   1.085       .  S
C28          C29   1.401       .  A
C28          C33   1.401       .  A
C28         C251   1.439       .  S
C29          C30   1.401       .  A
C29          H34   1.084       .  S
C30          C31   1.401       .  A
C30         C250   1.439       .  S
C31          C32   1.403       .  A
C31          H35   1.085       .  S
C32          C33   1.403       .  A
C32         C108   1.470       .  S
C33          H36   1.085       .  S
C37          C38   1.401       .  A
C37          C42   1.401       .  A
C37         C245   1.439       .  S
C38         C303   1.401   1_554  A
C38          H43   1.084       .  S
C39          C40   1.401       .  A
C39         C302   1.401       .  A
C39         C248   1.439       .  S
C40         C305   1.403       .  A
C40          H44   1.085       .  S
C41          C42   1.403   1_556  A
C41         C304   1.403       .  A
C41         C310   1.470       .  S
C42          H45   1.085       .  S
C46         C305   1.470       .  S
C46          N47   1.358       .  A
C46          N51   1.358       .  A
N47          C48   1.358       .  A
C48          C54   1.470       .  S
C48          N49   1.358       .  A
N49          C50   1.358       .  A
C50          N51   1.358       .  A
C52          C53   1.401       .  A
C52         C321   1.402       .  A
C52         C243   1.439       .  S
C53         C318   1.402       .  A
C53          H58   1.085       .  S
C54          C55   1.402       .  A
C54         C317   1.402       .  A
C55          C56   1.400       .  A
C55          H59   1.085       .  S
C56          C57   1.402       .  A
C56         C241   1.439       .  S
C57         C316   1.402       .  A
C57          H60   1.084       .  S
O61          C71   1.262       .  A
O61        V1125   1.898   1_455  S
O62          C72   1.262       .  A
O62          V69   1.898       .  S
O63          C73   1.262       .  A
O63        V1125   1.898   1_455  S
O64          C74   1.262       .  A
O64          V69   1.898       .  S
O65          C74   1.263       .  A
O65          V70   1.901       .  S
O66          C73   1.263       .  A
O66        V1126   1.902   1_455  S
O67          C72   1.263       .  A
O67          V70   1.901       .  S
O68          C71   1.263       .  A
O68        V1126   1.902   1_455  S
V69        O1117   1.898       .  S
V69        O1119   1.898       .  S
V69          V70   2.091       .  T
V70        O1122   1.902       .  S
V70        O1124   1.902       .  S
C71         C253   1.434       .  S
C72         C249   1.434       .  S
C73         C262   1.434       .  S
C74         C246   1.434       .  S
C75          C76   1.401       .  A
C75          C80   1.401       .  A
C75         C237   1.439       .  S
C76          C77   1.401       .  A
C76          H81   1.084       .  S
C77          C78   1.401       .  A
C77         C239   1.439       .  S
C78          C79   1.403       .  A
C78          H82   1.085       .  S
C79          C80   1.403       .  A
C79          C84   1.470       .  S
C80          H83   1.085       .  S
C84          N85   1.358       .  A
C84          N89   1.358       .  A
N85          C86   1.358       .  A
C86          C92   1.470       .  S
C86          N87   1.358       .  A
N87          C88   1.358       .  A
C88          N89   1.358       .  A
C90          C91   1.401       .  A
C90          C95   1.402       .  A
C90         C235   1.439       .  S
C91          C92   1.402       .  A
C91          H96   1.085       .  S
C92          C93   1.402       .  A
C93          C94   1.400       .  A
C93          H97   1.085       .  S
C94          C95   1.402       .  A
C94         C233   1.439       .  S
C95          H98   1.084       .  S
C99         C100   1.401       .  A
C99         C104   1.402       .  A
C99         C230   1.439       .  S
C100        C101   1.402       .  A
C100        H105   1.085       .  S
C101        C102   1.402       .  A
C101        C112   1.470       .  S
C102        C103   1.400       .  A
C102        H106   1.085       .  S
C103        C104   1.402       .  A
C103        C231   1.439       .  S
C104        H107   1.084       .  S
C108        N109   1.358       .  A
C108        N113   1.358       .  A
N109        C110   1.358       .  A
C110        C118   1.470       .  S
C110        N111   1.358       .  A
N111        C112   1.358       .  A
C112        N113   1.358       .  A
C114        C115   1.402       .  A
C114        C119   1.401       .  A
C114        C227   1.439       .  S
C115        C116   1.402       .  A
C115        H120   1.084       .  S
C116        C117   1.400       .  A
C116        C225   1.439       .  S
C117        C118   1.402       .  A
C117        H121   1.085       .  S
C118        C119   1.402       .  A
C119        H122   1.085       .  S
C123        C124   1.401   1_554  A
C123        C128   1.401       .  A
C123        C222   1.439       .  S
C124        C389   1.401       .  A
C124        H129   1.084       .  S
C125        C126   1.401       .  A
C125        C388   1.401       .  A
C125        C223   1.439       .  S
C126        C127   1.403       .  A
C126        H130   1.085       .  S
C127        C392   1.403       .  A
C127        C132   1.470       .  S
C128        C391   1.403   1_554  A
C128        H131   1.085       .  S
C132        N133   1.358       .  A
C132        N137   1.358       .  A
N133        C134   1.358       .  A
C134        C140   1.470       .  S
C134        N135   1.358       .  A
N135        C136   1.358       .  A
C136        N137   1.358       .  A
C138        C139   1.401       .  A
C138        C407   1.402       .  A
C138        C219   1.439       .  S
C139        C404   1.402       .  A
C139        H144   1.085       .  S
C140        C141   1.402       .  A
C140        C403   1.402       .  A
C141        C142   1.400       .  A
C141        H145   1.085       .  S
C142        C143   1.402       .  A
C142        C217   1.439       .  S
C143        C402   1.402       .  A
C143        H146   1.084       .  S
O147        C157   1.263       .  A
O147        V155   1.901       .  S
O148        C158   1.263       .  A
O148        V155   1.902       .  S
O149        C159   1.263       .  A
O149        V155   1.902       .  S
O150        C160   1.263       .  A
O150        V155   1.901       .  S
O151        C160   1.262       .  A
O151        V156   1.898       .  S
O152        C159   1.262       .  A
O152        V156   1.898       .  S
O153        C158   1.262       .  A
O153        V156   1.898       .  S
O154        C157   1.262       .  A
O154        V156   1.898       .  S
V155        V156   2.091       .  T
C157        C780   1.434       .  S
C158        C218   1.434       .  S
C159        C234   1.434       .  S
C160        C775   1.434       .  S
O161        C171   1.263       .  A
O161        V169   1.902       .  S
O162        C172   1.263       .  A
O162        V169   1.902       .  S
O163        C173   1.263       .  A
O163        V169   1.902       .  S
O164        C174   1.263       .  A
O164        V169   1.902       .  S
O165        C174   1.262       .  A
O165        V170   1.898       .  S
O166        C173   1.262       .  A
O166        V170   1.898       .  S
O167        C172   1.262       .  A
O167        V170   1.898       .  S
O168        C171   1.262       .  A
O168        V170   1.898       .  S
V169        V170   2.091       .  T
C171        C244   1.434       .  S
C172        C236   1.434       .  S
C173        C228   1.434       .  S
C174        C220   1.434       .  S
O175        C185   1.262       .  A
O175        V183   1.898       .  S
O176        C186   1.262       .  A
O176        V183   1.898       .  S
O177        C187   1.262       .  A
O177        V183   1.898       .  S
O178        C188   1.262       .  A
O178        V183   1.898       .  S
O179        C188   1.263       .  A
O179        V184   1.902       .  S
O180        C187   1.263       .  A
O180        V184   1.901       .  S
O181        C186   1.263       .  A
O181        V184   1.901       .  S
O182        C185   1.263       .  A
O182        V184   1.902       .  S
V183        V184   2.091       .  T
C185        C788   1.434       .  S
C186        C238   1.434       .  S
C187        C221   1.434       .  S
C188        C760   1.434       .  S
O189        C199   1.262       .  A
O189       V1253   1.898   1_455  S
O190        C200   1.262       .  A
O190        V197   1.898       .  S
O191        C201   1.262       .  A
O191       V1253   1.898   1_455  S
O192        C202   1.262       .  A
O192        V197   1.898       .  S
O193        C202   1.263       .  A
O193        V198   1.902       .  S
O194        C201   1.263       .  A
O194       V1254   1.901   1_455  S
O195        C200   1.263       .  A
O195        V198   1.902       .  S
O196        C199   1.263       .  A
O196       V1254   1.901   1_455  S
V197       O1245   1.898       .  S
V197       O1247   1.898       .  S
V197        V198   2.091       .  T
V198       O1250   1.901       .  S
V198       O1252   1.901       .  S
C199        C224   1.434       .  S
C200        C226   1.434       .  S
C201        C240   1.434       .  S
C202        C242   1.434       .  S
O203        C213   1.262       .  A
O203        V211   1.898       .  S
O204        C214   1.262       .  A
O204        V211   1.898       .  S
O205        C215   1.262       .  A
O205        V211   1.898       .  S
O206        C216   1.262       .  A
O206        V211   1.898       .  S
O207        C216   1.263       .  A
O207        V212   1.902       .  S
O208        C215   1.263       .  A
O208        V212   1.902       .  S
O209        C214   1.263       .  A
O209        V212   1.902       .  S
O210        C213   1.263       .  A
O210        V212   1.902       .  S
V211        V212   2.091       .  T
C213        C229   1.434       .  S
C214        C255   1.434       .  S
C215        C258   1.434       .  S
C216        C263   1.434       .  S
C217        C218   1.205       .  T
C219        C220   1.206       .  T
C221        C222   1.205       .  T
C223        C224   1.205       .  T
C225        C226   1.205       .  T
C227        C228   1.206       .  T
C229        C230   1.206       .  T
C231        C232   1.205       .  T
C232        C716   1.434   1_545  S
C233        C234   1.205       .  T
C235        C236   1.206       .  T
C237        C238   1.205       .  T
C239        C240   1.205       .  T
C241        C242   1.205       .  T
C243        C244   1.206       .  T
C245        C246   1.205       .  T
C247        C688   1.434   1_545  S
C247        C248   1.205       .  T
C249        C250   1.205       .  T
C251        C252   1.205       .  T
C252        C685   1.434   1_545  S
C253        C254   1.205       .  T
C255        C256   1.206       .  T
C257        C258   1.206       .  T
C259        C260   1.205       .  T
C260        C713   1.434   1_545  S
C261        C262   1.205       .  T
C263        C264   1.206       .  T
C265        C266   1.401       .  A
C265        C270   1.402       .  A
C265        C528   1.439       .  S
C266        C267   1.402       .  A
C266        H271   1.085       .  S
C267        C268   1.402       .  A
C267        C352   1.470       .  S
C268        C269   1.400       .  A
C268        H272   1.085       .  S
C269        C270   1.402       .  A
C269        C525   1.439       .  S
C270        H273   1.084       .  S
C274        C275   1.401       .  A
C274        C521   1.439       .  S
C275        C276   1.402       .  A
C275        H280   1.085       .  S
C276        C314   1.470       .  S
C277        C278   1.400       .  A
C277        H281   1.085       .  S
C278        C279   1.402       .  A
C278        C523   1.439       .  S
C279        H282   1.084       .  S
C283        C288   1.401       .  A
C283        C520   1.439       .  S
C284        C285   1.402       .  A
C284        H289   1.084       .  S
C285        C286   1.400       .  A
C285        C518   1.439       .  S
C286        H290   1.085       .  S
C287        C288   1.402       .  A
C287        C400   1.470       .  S
C288        H291   1.085       .  S
C292        C293   1.401       .  A
C292        C297   1.401       .  A
C292        C515   1.439       .  S
C293        C294   1.401       .  A
C293        H298   1.084       .  S
C294        C295   1.401       .  A
C294        C514   1.439       .  S
C295        C296   1.403       .  A
C295        H299   1.085       .  S
C296        C297   1.403       .  A
C296        C372   1.470       .  S
C297        H300   1.085       .  S
C301        C302   1.401       .  A
C301        C306   1.401       .  A
C301        C509   1.439       .  S
C302        H307   1.084       .  S
C303        C304   1.401       .  A
C303        C512   1.439       .  S
C304        H308   1.085       .  S
C305        C306   1.403       .  A
C306        H309   1.085       .  S
C310        N311   1.358   1_556  A
C310        N315   1.358       .  A
N311        C312   1.358       .  A
C312        C318   1.470       .  S
C312        N313   1.358   1_554  A
N313        C314   1.358       .  A
C314        N315   1.358       .  A
C316        C317   1.401       .  A
C316        C507   1.439       .  S
C317        H322   1.085       .  S
C318        C319   1.402   1_554  A
C319        C320   1.400       .  A
C319        H323   1.085       .  S
C320        C321   1.402   1_556  A
C320        C505   1.439       .  S
C321        H324   1.084       .  S
O325        C335   1.262       .  A
O325       V1389   1.898   1_455  S
O326        C336   1.262       .  A
O326        V333   1.898       .  S
O327        C337   1.262       .  A
O327       V1389   1.898   1_455  S
O328        C338   1.262       .  A
O328        V333   1.898       .  S
O329        C338   1.263       .  A
O329        V334   1.901       .  S
O330        C337   1.263       .  A
O330       V1390   1.902   1_455  S
O331        C336   1.263       .  A
O331        V334   1.901       .  S
O332        C335   1.263       .  A
O332       V1390   1.902   1_455  S
V333       O1381   1.898       .  S
V333       O1383   1.898       .  S
V333        V334   2.091       .  T
V334       O1386   1.902       .  S
V334       O1388   1.902       .  S
C335        C517   1.434       .  S
C336        C513   1.434       .  S
C337        C526   1.434       .  S
C338        C510   1.434       .  S
C339        C340   1.401       .  A
C339        C344   1.401       .  A
C339        C501   1.439       .  S
C340        C341   1.401       .  A
C340        H345   1.084       .  S
C341        C342   1.401       .  A
C341        C503   1.439       .  S
C342        C343   1.403       .  A
C342        H346   1.085       .  S
C343        C344   1.403       .  A
C343        C348   1.470       .  S
C344        H347   1.085       .  S
C348        N349   1.358       .  A
C348        N353   1.358       .  A
N349        C350   1.358       .  A
C350        C356   1.470       .  S
C350        N351   1.358       .  A
N351        C352   1.358       .  A
C352        N353   1.358       .  A
C354        C355   1.401       .  A
C354        C359   1.402       .  A
C354        C499   1.439       .  S
C355        C356   1.402       .  A
C355        H360   1.085       .  S
C356        C357   1.402       .  A
C357        C358   1.400       .  A
C357        H361   1.085       .  S
C358        C359   1.402       .  A
C358        C497   1.439       .  S
C359        H362   1.084       .  S
C363        C364   1.401       .  A
C363        C368   1.402       .  A
C363        C494   1.439       .  S
C364        C365   1.402       .  A
C364        H369   1.085       .  S
C365        C366   1.402       .  A
C365        C376   1.470       .  S
C366        C367   1.400       .  A
C366        H370   1.085       .  S
C367        C368   1.402       .  A
C367        C495   1.439       .  S
C368        H371   1.084       .  S
C372        N373   1.358       .  A
C372        N377   1.358       .  A
N373        C374   1.358       .  A
C374        C382   1.470       .  S
C374        N375   1.358       .  A
N375        C376   1.358       .  A
C376        N377   1.358       .  A
C378        C379   1.402       .  A
C378        C383   1.401       .  A
C378        C491   1.439       .  S
C379        C380   1.402       .  A
C379        H384   1.084       .  S
C380        C381   1.400       .  A
C380        C489   1.439       .  S
C381        C382   1.402       .  A
C381        H385   1.085       .  S
C382        C383   1.402       .  A
C383        H386   1.085       .  S
C387        C388   1.401       .  A
C387        C392   1.401       .  A
C387        C486   1.439       .  S
C388        H393   1.084       .  S
C389        C390   1.401       .  A
C389        C487   1.439       .  S
C390        C391   1.403       .  A
C390        H394   1.085       .  S
C391        C396   1.470       .  S
C392        H395   1.085       .  S
C396        N397   1.358   1_556  A
C396        N401   1.358       .  A
N397        C398   1.358       .  A
C398        C404   1.470       .  S
C398        N399   1.358   1_554  A
N399        C400   1.358       .  A
C400        N401   1.358       .  A
C402        C403   1.401       .  A
C402        C483   1.439       .  S
C403        H408   1.085       .  S
C404        C405   1.402   1_554  A
C405        C406   1.400       .  A
C405        H409   1.085       .  S
C406        C407   1.402   1_556  A
C406        C481   1.439       .  S
C407        H410   1.084       .  S
O411        C421   1.263       .  A
O411        V419   1.901       .  S
O412        C422   1.263       .  A
O412        V419   1.902       .  S
O413        C423   1.263       .  A
O413        V419   1.902       .  S
O414        C424   1.263       .  A
O414        V419   1.901       .  S
O415        C424   1.262       .  A
O415        V420   1.898       .  S
O416        C423   1.262       .  A
O416        V420   1.898       .  S
O417        C422   1.262       .  A
O417        V420   1.898       .  S
O418        C421   1.262       .  A
O418        V420   1.898       .  S
V419        V420   2.091       .  T
C421       C1044   1.434       .  S
C422        C482   1.434       .  S
C423        C498   1.434       .  S
C424       C1039   1.434       .  S
O425        C435   1.263       .  A
O425        V433   1.902       .  S
O426        C436   1.263       .  A
O426        V433   1.902       .  S
O427        C437   1.263       .  A
O427        V433   1.902       .  S
O428        C438   1.263       .  A
O428        V433   1.902       .  S
O429        C438   1.262       .  A
O429        V434   1.898       .  S
O430        C437   1.262       .  A
O430        V434   1.898       .  S
O431        C436   1.262       .  A
O431        V434   1.898       .  S
O432        C435   1.262       .  A
O432        V434   1.898       .  S
V433        V434   2.091       .  T
C435        C508   1.434       .  S
C436        C500   1.434       .  S
C437        C492   1.434       .  S
C438        C484   1.434       .  S
O439        C449   1.262       .  A
O439        V447   1.898       .  S
O440        C450   1.262       .  A
O440        V447   1.898       .  S
O441        C451   1.262       .  A
O441        V447   1.898       .  S
O442        C452   1.262       .  A
O442        V447   1.898       .  S
O443        C452   1.263       .  A
O443        V448   1.902       .  S
O444        C451   1.263       .  A
O444        V448   1.901       .  S
O445        C450   1.263       .  A
O445        V448   1.901       .  S
O446        C449   1.263       .  A
O446        V448   1.902       .  S
V447        V448   2.091       .  T
C449       C1052   1.434       .  S
C450        C502   1.434       .  S
C451        C485   1.434       .  S
C452       C1024   1.434       .  S
O453        C463   1.262       .  A
O453       V1517   1.898   1_455  S
O454        C464   1.262       .  A
O454        V461   1.898       .  S
O455        C465   1.262       .  A
O455       V1517   1.898   1_455  S
O456        C466   1.262       .  A
O456        V461   1.898       .  S
O457        C466   1.263       .  A
O457        V462   1.902       .  S
O458        C465   1.263       .  A
O458       V1518   1.901   1_455  S
O459        C464   1.263       .  A
O459        V462   1.902       .  S
O460        C463   1.263       .  A
O460       V1518   1.901   1_455  S
V461       O1509   1.898       .  S
V461       O1511   1.898       .  S
V461        V462   2.091       .  T
V462       O1514   1.901       .  S
V462       O1516   1.901       .  S
C463        C488   1.434       .  S
C464        C490   1.434       .  S
C465        C504   1.434       .  S
C466        C506   1.434       .  S
O467        C477   1.262       .  A
O467        V475   1.898       .  S
O468        C478   1.262       .  A
O468        V475   1.898       .  S
O469        C479   1.262       .  A
O469        V475   1.898       .  S
O470        C480   1.262       .  A
O470        V475   1.898       .  S
O471        C480   1.263       .  A
O471        V476   1.902       .  S
O472        C479   1.263       .  A
O472        V476   1.902       .  S
O473        C478   1.263       .  A
O473        V476   1.902       .  S
O474        C477   1.263       .  A
O474        V476   1.902       .  S
V475        V476   2.091       .  T
C477        C493   1.434       .  S
C478        C519   1.434       .  S
C479        C522   1.434       .  S
C480        C527   1.434       .  S
C481        C482   1.205       .  T
C483        C484   1.206       .  T
C485        C486   1.205       .  T
C487        C488   1.205       .  T
C489        C490   1.205       .  T
C491        C492   1.206       .  T
C493        C494   1.206       .  T
C495        C496   1.205       .  T
C496        C980   1.434   1_545  S
C497        C498   1.205       .  T
C499        C500   1.206       .  T
C501        C502   1.205       .  T
C503        C504   1.205       .  T
C505        C506   1.205       .  T
C507        C508   1.206       .  T
C509        C510   1.205       .  T
C511        C952   1.434   1_545  S
C511        C512   1.205       .  T
C513        C514   1.205       .  T
C515        C516   1.205       .  T
C516        C949   1.434   1_545  S
C517        C518   1.205       .  T
C519        C520   1.206       .  T
C521        C522   1.206       .  T
C523        C524   1.205       .  T
C524        C977   1.434   1_545  S
C525        C526   1.205       .  T
C527        C528   1.206       .  T
C529        C530   1.401       .  A
C529        C534   1.402       .  A
C529        C792   1.439       .  S
C530        C531   1.402       .  A
C530        H535   1.085       .  S
C531        C532   1.402       .  A
C531        C616   1.470       .  S
C532        C533   1.400       .  A
C532        H536   1.085       .  S
C533        C534   1.402       .  A
C533        C789   1.439       .  S
C534        H537   1.084       .  S
C538        C539   1.401       .  A
C538        C807   1.402       .  A
C538        C785   1.439       .  S
C539        C540   1.402       .  A
C539        H544   1.085       .  S
C540        C805   1.402       .  A
C540        C578   1.470       .  S
C541        C804   1.402   1_554  A
C541        C542   1.400       .  A
C541        H545   1.085       .  S
C542        C543   1.402   1_554  A
C542        C787   1.439       .  S
C543        C802   1.402       .  A
C543        H546   1.084       .  S
C547        C812   1.402       .  A
C547        C552   1.401       .  A
C547        C784   1.439       .  S
C548        C811   1.402       .  A
C548        C549   1.402   1_556  A
C548        H553   1.084       .  S
C549        C550   1.400       .  A
C549        C782   1.439       .  S
C550        C815   1.402   1_554  A
C550        H554   1.085       .  S
C551        C814   1.402       .  A
C551        C552   1.402       .  A
C551        C664   1.470       .  S
C552        H555   1.085       .  S
C556        C557   1.401       .  A
C556        C561   1.401       .  A
C556        C779   1.439       .  S
C557        C558   1.401       .  A
C557        H562   1.084       .  S
C558        C559   1.401       .  A
C558        C778   1.439       .  S
C559        C560   1.403       .  A
C559        H563   1.085       .  S
C560        C561   1.403       .  A
C560        C636   1.470       .  S
C561        H564   1.085       .  S
C565        C566   1.401       .  A
C565        C570   1.401       .  A
C565        C773   1.439       .  S
C566        C831   1.401   1_554  A
C566        H571   1.084       .  S
C567        C830   1.401       .  A
C567        C568   1.401       .  A
C567        C776   1.439       .  S
C568        C833   1.403       .  A
C568        H572   1.085       .  S
C569        C832   1.403       .  A
C569        C570   1.403   1_556  A
C569        C838   1.470       .  S
C570        H573   1.085       .  S
C574        C833   1.470       .  S
C574        N575   1.358       .  A
C574        N579   1.358       .  A
N575        C576   1.358       .  A
C576        C582   1.470       .  S
C576        N577   1.358       .  A
N577        C578   1.358       .  A
C578        N579   1.358       .  A
C580        C581   1.401       .  A
C580        C849   1.402       .  A
C580        C771   1.439       .  S
C581        C846   1.402       .  A
C581        H586   1.085       .  S
C582        C845   1.402       .  A
C582        C583   1.402       .  A
C583        C584   1.400       .  A
C583        H587   1.085       .  S
C584        C585   1.402       .  A
C584        C769   1.439       .  S
C585        C844   1.402       .  A
C585        H588   1.084       .  S
O589        C599   1.262       .  A
O589       V1653   1.898   1_455  S
O590        C600   1.262       .  A
O590        V597   1.898       .  S
O591        C601   1.262       .  A
O591       V1653   1.898   1_455  S
O592        C602   1.262       .  A
O592        V597   1.898       .  S
O593        C602   1.263       .  A
O593        V598   1.901       .  S
O594        C601   1.263       .  A
O594       V1654   1.902   1_455  S
O595        C600   1.263       .  A
O595        V598   1.901       .  S
O596        C599   1.263       .  A
O596       V1654   1.902   1_455  S
V597       O1645   1.898       .  S
V597       O1647   1.898       .  S
V597        V598   2.091       .  T
V598       O1650   1.902       .  S
V598       O1652   1.902       .  S
C599        C781   1.434       .  S
C600        C777   1.434       .  S
C601        C790   1.434       .  S
C602        C774   1.434       .  S
C603        C604   1.401       .  A
C603        C608   1.401       .  A
C603        C765   1.439       .  S
C604        C605   1.401       .  A
C604        H609   1.084       .  S
C605        C606   1.401       .  A
C605        C767   1.439       .  S
C606        C607   1.403       .  A
C606        H610   1.085       .  S
C607        C608   1.403       .  A
C607        C612   1.470       .  S
C608        H611   1.085       .  S
C612        N613   1.358       .  A
C612        N617   1.358       .  A
N613        C614   1.358       .  A
C614        C620   1.470       .  S
C614        N615   1.358       .  A
N615        C616   1.358       .  A
C616        N617   1.358       .  A
C618        C619   1.401       .  A
C618        C623   1.402       .  A
C618        C763   1.439       .  S
C619        C620   1.402       .  A
C619        H624   1.085       .  S
C620        C621   1.402       .  A
C621        C622   1.400       .  A
C621        H625   1.085       .  S
C622        C623   1.402       .  A
C622        C761   1.439       .  S
C623        H626   1.084       .  S
C627        C628   1.401       .  A
C627        C632   1.402       .  A
C627        C758   1.439       .  S
C628        C629   1.402       .  A
C628        H633   1.085       .  S
C629        C630   1.402       .  A
C629        C640   1.470       .  S
C630        C631   1.400       .  A
C630        H634   1.085       .  S
C631        C632   1.402       .  A
C631        C759   1.439       .  S
C632        H635   1.084       .  S
C636        N637   1.358       .  A
C636        N641   1.358       .  A
N637        C638   1.358       .  A
C638        C646   1.470       .  S
C638        N639   1.358       .  A
N639        C640   1.358       .  A
C640        N641   1.358       .  A
C642        C643   1.402       .  A
C642        C647   1.401       .  A
C642        C755   1.439       .  S
C643        C644   1.402       .  A
C643        H648   1.084       .  S
C644        C645   1.400       .  A
C644        C753   1.439       .  S
C645        C646   1.402       .  A
C645        H649   1.085       .  S
C646        C647   1.402       .  A
C647        H650   1.085       .  S
C651        C652   1.401   1_554  A
C651        C656   1.401       .  A
C651        C750   1.439       .  S
C652        C917   1.401       .  A
C652        H657   1.084       .  S
C653        C916   1.401       .  A
C653        C654   1.401       .  A
C653        C751   1.439       .  S
C654        C655   1.403       .  A
C654        H658   1.085       .  S
C655        C920   1.403       .  A
C655        C660   1.470       .  S
C656        C919   1.403   1_554  A
C656        H659   1.085       .  S
C660        N661   1.358       .  A
C660        N665   1.358       .  A
N661        C662   1.358       .  A
C662        C668   1.470       .  S
C662        N663   1.358       .  A
N663        C664   1.358       .  A
C664        N665   1.358       .  A
C666        C667   1.401       .  A
C666        C935   1.402       .  A
C666        C747   1.439       .  S
C667        C932   1.402       .  A
C667        H672   1.085       .  S
C668        C931   1.402       .  A
C668        C669   1.402       .  A
C669        C670   1.400       .  A
C669        H673   1.085       .  S
C670        C671   1.402       .  A
C670        C745   1.439       .  S
C671        C930   1.402       .  A
C671        H674   1.084       .  S
O675        C685   1.263       .  A
O675        V683   1.901       .  S
O676        C686   1.263       .  A
O676        V683   1.902       .  S
O677        C687   1.263       .  A
O677        V683   1.902       .  S
O678        C688   1.263       .  A
O678        V683   1.901       .  S
O679        C688   1.262       .  A
O679        V684   1.898       .  S
O680        C687   1.262       .  A
O680        V684   1.898       .  S
O681        C686   1.262       .  A
O681        V684   1.898       .  S
O682        C685   1.262       .  A
O682        V684   1.898       .  S
V683        V684   2.091       .  T
C686        C746   1.434       .  S
C687        C762   1.434       .  S
O689        C699   1.263       .  A
O689        V697   1.902       .  S
O690        C700   1.263       .  A
O690        V697   1.902       .  S
O691        C701   1.263       .  A
O691        V697   1.902       .  S
O692        C702   1.263       .  A
O692        V697   1.902       .  S
O693        C702   1.262       .  A
O693        V698   1.898       .  S
O694        C701   1.262       .  A
O694        V698   1.898       .  S
O695        C700   1.262       .  A
O695        V698   1.898       .  S
O696        C699   1.262       .  A
O696        V698   1.898       .  S
V697        V698   2.091       .  T
C699        C772   1.434       .  S
C700        C764   1.434       .  S
C701        C756   1.434       .  S
C702        C748   1.434       .  S
O703        C713   1.262       .  A
O703        V711   1.898       .  S
O704        C714   1.262       .  A
O704        V711   1.898       .  S
O705        C715   1.262       .  A
O705        V711   1.898       .  S
O706        C716   1.262       .  A
O706        V711   1.898       .  S
O707        C716   1.263       .  A
O707        V712   1.902       .  S
O708        C715   1.263       .  A
O708        V712   1.901       .  S
O709        C714   1.263       .  A
O709        V712   1.901       .  S
O710        C713   1.263       .  A
O710        V712   1.902       .  S
V711        V712   2.091       .  T
C714        C766   1.434       .  S
C715        C749   1.434       .  S
O717        C727   1.262       .  A
O717       V1781   1.898   1_455  S
O718        C728   1.262       .  A
O718        V725   1.898       .  S
O719        C729   1.262       .  A
O719       V1781   1.898   1_455  S
O720        C730   1.262       .  A
O720        V725   1.898       .  S
O721        C730   1.263       .  A
O721        V726   1.902       .  S
O722        C729   1.263       .  A
O722       V1782   1.901   1_455  S
O723        C728   1.263       .  A
O723        V726   1.902       .  S
O724        C727   1.263       .  A
O724       V1782   1.901   1_455  S
V725       O1773   1.898       .  S
V725       O1775   1.898       .  S
V725        V726   2.091       .  T
V726       O1778   1.901       .  S
V726       O1780   1.901       .  S
C727        C752   1.434       .  S
C728        C754   1.434       .  S
C729        C768   1.434       .  S
C730        C770   1.434       .  S
O731        C741   1.262       .  A
O731        V739   1.898       .  S
O732        C742   1.262       .  A
O732        V739   1.898       .  S
O733        C743   1.262       .  A
O733        V739   1.898       .  S
O734        C744   1.262       .  A
O734        V739   1.898       .  S
O735        C744   1.263       .  A
O735        V740   1.902       .  S
O736        C743   1.263       .  A
O736        V740   1.902       .  S
O737        C742   1.263       .  A
O737        V740   1.902       .  S
O738        C741   1.263       .  A
O738        V740   1.902       .  S
V739        V740   2.091       .  T
C741        C757   1.434       .  S
C742        C783   1.434       .  S
C743        C786   1.434       .  S
C744        C791   1.434       .  S
C745        C746   1.205       .  T
C747        C748   1.206       .  T
C749        C750   1.205       .  T
C751        C752   1.205       .  T
C753        C754   1.205       .  T
C755        C756   1.206       .  T
C757        C758   1.206       .  T
C759        C760   1.205       .  T
C761        C762   1.205       .  T
C763        C764   1.206       .  T
C765        C766   1.205       .  T
C767        C768   1.205       .  T
C769        C770   1.205       .  T
C771        C772   1.206       .  T
C773        C774   1.205       .  T
C775        C776   1.205       .  T
C777        C778   1.205       .  T
C779        C780   1.205       .  T
C781        C782   1.205       .  T
C783        C784   1.206       .  T
C785        C786   1.206       .  T
C787        C788   1.205       .  T
C789        C790   1.205       .  T
C791        C792   1.206       .  T
C793        C794   1.401       .  A
C793        C798   1.402       .  A
C793       C1056   1.439       .  S
C794        C795   1.402       .  A
C794        H799   1.085       .  S
C795        C796   1.402       .  A
C795        C880   1.470       .  S
C796        C797   1.400       .  A
C796        H800   1.085       .  S
C797        C798   1.402       .  A
C797       C1053   1.439       .  S
C798        H801   1.084       .  S
C802        C803   1.401       .  A
C802       C1049   1.439       .  S
C803        C804   1.402       .  A
C803        H808   1.085       .  S
C804        C842   1.470       .  S
C805        C806   1.400       .  A
C805        H809   1.085       .  S
C806        C807   1.402       .  A
C806       C1051   1.439       .  S
C807        H810   1.084       .  S
C811        C816   1.401       .  A
C811       C1048   1.439       .  S
C812        C813   1.402       .  A
C812        H817   1.084       .  S
C813        C814   1.400       .  A
C813       C1046   1.439       .  S
C814        H818   1.085       .  S
C815        C816   1.402       .  A
C815        C928   1.470       .  S
C816        H819   1.085       .  S
C820        C821   1.401       .  A
C820        C825   1.401       .  A
C820       C1043   1.439       .  S
C821        C822   1.401       .  A
C821        H826   1.084       .  S
C822        C823   1.401       .  A
C822       C1042   1.439       .  S
C823        C824   1.403       .  A
C823        H827   1.085       .  S
C824        C825   1.403       .  A
C824        C900   1.470       .  S
C825        H828   1.085       .  S
C829        C830   1.401       .  A
C829        C834   1.401       .  A
C829       C1037   1.439       .  S
C830        H835   1.084       .  S
C831        C832   1.401       .  A
C831       C1040   1.439       .  S
C832        H836   1.085       .  S
C833        C834   1.403       .  A
C834        H837   1.085       .  S
C838        N839   1.358   1_556  A
C838        N843   1.358       .  A
N839        C840   1.358       .  A
C840        C846   1.470       .  S
C840        N841   1.358   1_554  A
N841        C842   1.358       .  A
C842        N843   1.358       .  A
C844        C845   1.401       .  A
C844       C1035   1.439       .  S
C845        H850   1.085       .  S
C846        C847   1.402   1_554  A
C847        C848   1.400       .  A
C847        H851   1.085       .  S
C848        C849   1.402   1_556  A
C848       C1033   1.439       .  S
C849        H852   1.084       .  S
O853        C863   1.262       .  A
O853       V1917   1.898   1_455  S
O854        C864   1.262       .  A
O854        V861   1.898       .  S
O855        C865   1.262       .  A
O855       V1917   1.898   1_455  S
O856        C866   1.262       .  A
O856        V861   1.898       .  S
O857        C866   1.263       .  A
O857        V862   1.901       .  S
O858        C865   1.263       .  A
O858       V1918   1.902   1_455  S
O859        C864   1.263       .  A
O859        V862   1.901       .  S
O860        C863   1.263       .  A
O860       V1918   1.902   1_455  S
V861       O1909   1.898       .  S
V861       O1911   1.898       .  S
V861        V862   2.091       .  T
V862       O1914   1.902       .  S
V862       O1916   1.902       .  S
C863       C1045   1.434       .  S
C864       C1041   1.434       .  S
C865       C1054   1.434       .  S
C866       C1038   1.434       .  S
C867        C868   1.401       .  A
C867        C872   1.401       .  A
C867       C1029   1.439       .  S
C868        C869   1.401       .  A
C868        H873   1.084       .  S
C869        C870   1.401       .  A
C869       C1031   1.439       .  S
C870        C871   1.403       .  A
C870        H874   1.085       .  S
C871        C872   1.403       .  A
C871        C876   1.470       .  S
C872        H875   1.085       .  S
C876        N877   1.358       .  A
C876        N881   1.358       .  A
N877        C878   1.358       .  A
C878        C884   1.470       .  S
C878        N879   1.358       .  A
N879        C880   1.358       .  A
C880        N881   1.358       .  A
C882        C883   1.401       .  A
C882        C887   1.402       .  A
C882       C1027   1.439       .  S
C883        C884   1.402       .  A
C883        H888   1.085       .  S
C884        C885   1.402       .  A
C885        C886   1.400       .  A
C885        H889   1.085       .  S
C886        C887   1.402       .  A
C886       C1025   1.439       .  S
C887        H890   1.084       .  S
C891        C892   1.401       .  A
C891        C896   1.402       .  A
C891       C1022   1.439       .  S
C892        C893   1.402       .  A
C892        H897   1.085       .  S
C893        C894   1.402       .  A
C893        C904   1.470       .  S
C894        C895   1.400       .  A
C894        H898   1.085       .  S
C895        C896   1.402       .  A
C895       C1023   1.439       .  S
C896        H899   1.084       .  S
C900        N901   1.358       .  A
C900        N905   1.358       .  A
N901        C902   1.358       .  A
C902        C910   1.470       .  S
C902        N903   1.358       .  A
N903        C904   1.358       .  A
C904        N905   1.358       .  A
C906        C907   1.402       .  A
C906        C911   1.401       .  A
C906       C1019   1.439       .  S
C907        C908   1.402       .  A
C907        H912   1.084       .  S
C908        C909   1.400       .  A
C908       C1017   1.439       .  S
C909        C910   1.402       .  A
C909        H913   1.085       .  S
C910        C911   1.402       .  A
C911        H914   1.085       .  S
C915        C916   1.401       .  A
C915        C920   1.401       .  A
C915       C1014   1.439       .  S
C916        H921   1.084       .  S
C917        C918   1.401       .  A
C917       C1015   1.439       .  S
C918        C919   1.403       .  A
C918        H922   1.085       .  S
C919        C924   1.470       .  S
C920        H923   1.085       .  S
C924        N925   1.358   1_556  A
C924        N929   1.358       .  A
N925        C926   1.358       .  A
C926        C932   1.470       .  S
C926        N927   1.358   1_554  A
N927        C928   1.358       .  A
C928        N929   1.358       .  A
C930        C931   1.401       .  A
C930       C1011   1.439       .  S
C931        H936   1.085       .  S
C932        C933   1.402   1_554  A
C933        C934   1.400       .  A
C933        H937   1.085       .  S
C934        C935   1.402   1_556  A
C934       C1009   1.439       .  S
C935        H938   1.084       .  S
O939        C949   1.263       .  A
O939        V947   1.901       .  S
O940        C950   1.263       .  A
O940        V947   1.902       .  S
O941        C951   1.263       .  A
O941        V947   1.902       .  S
O942        C952   1.263       .  A
O942        V947   1.901       .  S
O943        C952   1.262       .  A
O943        V948   1.898       .  S
O944        C951   1.262       .  A
O944        V948   1.898       .  S
O945        C950   1.262       .  A
O945        V948   1.898       .  S
O946        C949   1.262       .  A
O946        V948   1.898       .  S
V947        V948   2.091       .  T
C950       C1010   1.434       .  S
C951       C1026   1.434       .  S
O953        C963   1.263       .  A
O953        V961   1.902       .  S
O954        C964   1.263       .  A
O954        V961   1.902       .  S
O955        C965   1.263       .  A
O955        V961   1.902       .  S
O956        C966   1.263       .  A
O956        V961   1.902       .  S
O957        C966   1.262       .  A
O957        V962   1.898       .  S
O958        C965   1.262       .  A
O958        V962   1.898       .  S
O959        C964   1.262       .  A
O959        V962   1.898       .  S
O960        C963   1.262       .  A
O960        V962   1.898       .  S
V961        V962   2.091       .  T
C963       C1036   1.434       .  S
C964       C1028   1.434       .  S
C965       C1020   1.434       .  S
C966       C1012   1.434       .  S
O967        C977   1.262       .  A
O967        V975   1.898       .  S
O968        C978   1.262       .  A
O968        V975   1.898       .  S
O969        C979   1.262       .  A
O969        V975   1.898       .  S
O970        C980   1.262       .  A
O970        V975   1.898       .  S
O971        C980   1.263       .  A
O971        V976   1.902       .  S
O972        C979   1.263       .  A
O972        V976   1.901       .  S
O973        C978   1.263       .  A
O973        V976   1.901       .  S
O974        C977   1.263       .  A
O974        V976   1.902       .  S
V975        V976   2.091       .  T
C978       C1030   1.434       .  S
C979       C1013   1.434       .  S
O981        C991   1.262       .  A
O981       V2045   1.898   1_455  S
O982        C992   1.262       .  A
O982        V989   1.898       .  S
O983        C993   1.262       .  A
O983       V2045   1.898   1_455  S
O984        C994   1.262       .  A
O984        V989   1.898       .  S
O985        C994   1.263       .  A
O985        V990   1.902       .  S
O986        C993   1.263       .  A
O986       V2046   1.901   1_455  S
O987        C992   1.263       .  A
O987        V990   1.902       .  S
O988        C991   1.263       .  A
O988       V2046   1.901   1_455  S
V989       O2037   1.898       .  S
V989       O2039   1.898       .  S
V989        V990   2.091       .  T
V990       O2042   1.901       .  S
V990       O2044   1.901       .  S
C991       C1016   1.434       .  S
C992       C1018   1.434       .  S
C993       C1032   1.434       .  S
C994       C1034   1.434       .  S
O995       C1005   1.262       .  A
O995       V1003   1.898       .  S
O996       C1006   1.262       .  A
O996       V1003   1.898       .  S
O997       C1007   1.262       .  A
O997       V1003   1.898       .  S
O998       C1008   1.262       .  A
O998       V1003   1.898       .  S
O999       C1008   1.263       .  A
O999       V1004   1.902       .  S
O1000      C1007   1.263       .  A
O1000      V1004   1.902       .  S
O1001      C1006   1.263       .  A
O1001      V1004   1.902       .  S
O1002      C1005   1.263       .  A
O1002      V1004   1.902       .  S
V1003      V1004   2.091       .  T
C1005      C1021   1.434       .  S
C1006      C1047   1.434       .  S
C1007      C1050   1.434       .  S
C1008      C1055   1.434       .  S
C1009      C1010   1.205       .  T
C1011      C1012   1.206       .  T
C1013      C1014   1.205       .  T
C1015      C1016   1.205       .  T
C1017      C1018   1.205       .  T
C1019      C1020   1.206       .  T
C1021      C1022   1.206       .  T
C1023      C1024   1.205       .  T
C1025      C1026   1.205       .  T
C1027      C1028   1.206       .  T
C1029      C1030   1.205       .  T
C1031      C1032   1.205       .  T
C1033      C1034   1.205       .  T
C1035      C1036   1.206       .  T
C1037      C1038   1.205       .  T
C1039      C1040   1.205       .  T
C1041      C1042   1.205       .  T
C1043      C1044   1.205       .  T
C1045      C1046   1.205       .  T
C1047      C1048   1.206       .  T
C1049      C1050   1.206       .  T
C1051      C1052   1.205       .  T
C1053      C1054   1.205       .  T
C1055      C1056   1.206       .  T
C1057      C1058   1.401       .  A
C1057      C1062   1.402       .  A
C1057      C1320   1.439       .  S
C1058      C1059   1.402       .  A
C1058      H1063   1.085       .  S
C1059      C1060   1.402       .  A
C1059      C1144   1.470       .  S
C1060      C1061   1.400       .  A
C1060      H1064   1.085       .  S
C1061      C1062   1.402       .  A
C1061      C1317   1.439       .  S
C1062      H1065   1.084       .  S
C1066      C1067   1.401       .  A
C1066      C1335   1.402       .  A
C1066      C1313   1.439       .  S
C1067      C1068   1.402       .  A
C1067      H1072   1.085       .  S
C1068      C1333   1.402       .  A
C1068      C1106   1.470       .  S
C1069      C1332   1.402   1_554  A
C1069      C1070   1.400       .  A
C1069      H1073   1.085       .  S
C1070      C1071   1.402   1_554  A
C1070      C1315   1.439       .  S
C1071      C1330   1.402       .  A
C1071      H1074   1.084       .  S
C1075      C1340   1.402       .  A
C1075      C1080   1.401       .  A
C1075      C1312   1.439       .  S
C1076      C1339   1.402       .  A
C1076      C1077   1.402   1_556  A
C1076      H1081   1.084       .  S
C1077      C1078   1.400       .  A
C1077      C1310   1.439       .  S
C1078      C1343   1.402   1_554  A
C1078      H1082   1.085       .  S
C1079      C1342   1.402       .  A
C1079      C1080   1.402       .  A
C1079      C1192   1.470       .  S
C1080      H1083   1.085       .  S
C1084      C1085   1.401       .  A
C1084      C1089   1.401       .  A
C1084      C1307   1.439       .  S
C1085      C1086   1.401       .  A
C1085      H1090   1.084       .  S
C1086      C1087   1.401       .  A
C1086      C1306   1.439       .  S
C1087      C1088   1.403       .  A
C1087      H1091   1.085       .  S
C1088      C1089   1.403       .  A
C1088      C1164   1.470       .  S
C1089      H1092   1.085       .  S
C1093      C1094   1.401       .  A
C1093      C1098   1.401       .  A
C1093      C1301   1.439       .  S
C1094      C1359   1.401   1_554  A
C1094      H1099   1.084       .  S
C1095      C1358   1.401       .  A
C1095      C1096   1.401       .  A
C1095      C1304   1.439       .  S
C1096      C1361   1.403       .  A
C1096      H1100   1.085       .  S
C1097      C1360   1.403       .  A
C1097      C1098   1.403   1_556  A
C1097      C1366   1.470       .  S
C1098      H1101   1.085       .  S
C1102      C1361   1.470       .  S
C1102      N1103   1.358       .  A
C1102      N1107   1.358       .  A
N1103      C1104   1.358       .  A
C1104      C1110   1.470       .  S
C1104      N1105   1.358       .  A
N1105      C1106   1.358       .  A
C1106      N1107   1.358       .  A
C1108      C1109   1.401       .  A
C1108      C1377   1.402       .  A
C1108      C1299   1.439       .  S
C1109      C1374   1.402       .  A
C1109      H1114   1.085       .  S
C1110      C1373   1.402       .  A
C1110      C1111   1.402       .  A
C1111      C1112   1.400       .  A
C1111      H1115   1.085       .  S
C1112      C1113   1.402       .  A
C1112      C1297   1.439       .  S
C1113      C1372   1.402       .  A
C1113      H1116   1.084       .  S
O1117      C1127   1.262       .  A
O1118      C1128   1.262       .  A
O1118      V1125   1.898       .  S
O1119      C1129   1.262       .  A
O1120      C1130   1.262       .  A
O1120      V1125   1.898       .  S
O1121      C1130   1.263       .  A
O1121      V1126   1.901       .  S
O1122      C1129   1.263       .  A
O1123      C1128   1.263       .  A
O1123      V1126   1.901       .  S
O1124      C1127   1.263       .  A
V1125      V1126   2.091       .  T
C1127      C1309   1.434       .  S
C1128      C1305   1.434       .  S
C1129      C1318   1.434       .  S
C1130      C1302   1.434       .  S
C1131      C1132   1.401       .  A
C1131      C1136   1.401       .  A
C1131      C1293   1.439       .  S
C1132      C1133   1.401       .  A
C1132      H1137   1.084       .  S
C1133      C1134   1.401       .  A
C1133      C1295   1.439       .  S
C1134      C1135   1.403       .  A
C1134      H1138   1.085       .  S
C1135      C1136   1.403       .  A
C1135      C1140   1.470       .  S
C1136      H1139   1.085       .  S
C1140      N1141   1.358       .  A
C1140      N1145   1.358       .  A
N1141      C1142   1.358       .  A
C1142      C1148   1.470       .  S
C1142      N1143   1.358       .  A
N1143      C1144   1.358       .  A
C1144      N1145   1.358       .  A
C1146      C1147   1.401       .  A
C1146      C1151   1.402       .  A
C1146      C1291   1.439       .  S
C1147      C1148   1.402       .  A
C1147      H1152   1.085       .  S
C1148      C1149   1.402       .  A
C1149      C1150   1.400       .  A
C1149      H1153   1.085       .  S
C1150      C1151   1.402       .  A
C1150      C1289   1.439       .  S
C1151      H1154   1.084       .  S
C1155      C1156   1.401       .  A
C1155      C1160   1.402       .  A
C1155      C1286   1.439       .  S
C1156      C1157   1.402       .  A
C1156      H1161   1.085       .  S
C1157      C1158   1.402       .  A
C1157      C1168   1.470       .  S
C1158      C1159   1.400       .  A
C1158      H1162   1.085       .  S
C1159      C1160   1.402       .  A
C1159      C1287   1.439       .  S
C1160      H1163   1.084       .  S
C1164      N1165   1.358       .  A
C1164      N1169   1.358       .  A
N1165      C1166   1.358       .  A
C1166      C1174   1.470       .  S
C1166      N1167   1.358       .  A
N1167      C1168   1.358       .  A
C1168      N1169   1.358       .  A
C1170      C1171   1.402       .  A
C1170      C1175   1.401       .  A
C1170      C1283   1.439       .  S
C1171      C1172   1.402       .  A
C1171      H1176   1.084       .  S
C1172      C1173   1.400       .  A
C1172      C1281   1.439       .  S
C1173      C1174   1.402       .  A
C1173      H1177   1.085       .  S
C1174      C1175   1.402       .  A
C1175      H1178   1.085       .  S
C1179      C1180   1.401   1_554  A
C1179      C1184   1.401       .  A
C1179      C1278   1.439       .  S
C1180      C1445   1.401       .  A
C1180      H1185   1.084       .  S
C1181      C1444   1.401       .  A
C1181      C1182   1.401       .  A
C1181      C1279   1.439       .  S
C1182      C1183   1.403       .  A
C1182      H1186   1.085       .  S
C1183      C1448   1.403       .  A
C1183      C1188   1.470       .  S
C1184      C1447   1.403   1_554  A
C1184      H1187   1.085       .  S
C1188      N1189   1.358       .  A
C1188      N1193   1.358       .  A
N1189      C1190   1.358       .  A
C1190      C1196   1.470       .  S
C1190      N1191   1.358       .  A
N1191      C1192   1.358       .  A
C1192      N1193   1.358       .  A
C1194      C1195   1.401       .  A
C1194      C1463   1.402       .  A
C1194      C1275   1.439       .  S
C1195      C1460   1.402       .  A
C1195      H1200   1.085       .  S
C1196      C1459   1.402       .  A
C1196      C1197   1.402       .  A
C1197      C1198   1.400       .  A
C1197      H1201   1.085       .  S
C1198      C1199   1.402       .  A
C1198      C1273   1.439       .  S
C1199      C1458   1.402       .  A
C1199      H1202   1.084       .  S
O1203      C1213   1.263       .  A
O1203      V1211   1.901       .  S
O1204      C1214   1.263       .  A
O1204      V1211   1.902       .  S
O1205      C1215   1.263       .  A
O1205      V1211   1.902       .  S
O1206      C1216   1.263       .  A
O1206      V1211   1.901       .  S
O1207      C1216   1.262       .  A
O1207      V1212   1.898       .  S
O1208      C1215   1.262       .  A
O1208      V1212   1.898       .  S
O1209      C1214   1.262       .  A
O1209      V1212   1.898       .  S
O1210      C1213   1.262       .  A
O1210      V1212   1.898       .  S
V1211      V1212   2.091       .  T
C1213      C1836   1.434       .  S
C1214      C1274   1.434       .  S
C1215      C1290   1.434       .  S
C1216      C1831   1.434       .  S
O1217      C1227   1.263       .  A
O1217      V1225   1.902       .  S
O1218      C1228   1.263       .  A
O1218      V1225   1.902       .  S
O1219      C1229   1.263       .  A
O1219      V1225   1.902       .  S
O1220      C1230   1.263       .  A
O1220      V1225   1.902       .  S
O1221      C1230   1.262       .  A
O1221      V1226   1.898       .  S
O1222      C1229   1.262       .  A
O1222      V1226   1.898       .  S
O1223      C1228   1.262       .  A
O1223      V1226   1.898       .  S
O1224      C1227   1.262       .  A
O1224      V1226   1.898       .  S
V1225      V1226   2.091       .  T
C1227      C1300   1.434       .  S
C1228      C1292   1.434       .  S
C1229      C1284   1.434       .  S
C1230      C1276   1.434       .  S
O1231      C1241   1.262       .  A
O1231      V1239   1.898       .  S
O1232      C1242   1.262       .  A
O1232      V1239   1.898       .  S
O1233      C1243   1.262       .  A
O1233      V1239   1.898       .  S
O1234      C1244   1.262       .  A
O1234      V1239   1.898       .  S
O1235      C1244   1.263       .  A
O1235      V1240   1.902       .  S
O1236      C1243   1.263       .  A
O1236      V1240   1.901       .  S
O1237      C1242   1.263       .  A
O1237      V1240   1.901       .  S
O1238      C1241   1.263       .  A
O1238      V1240   1.902       .  S
V1239      V1240   2.091       .  T
C1241      C1844   1.434       .  S
C1242      C1294   1.434       .  S
C1243      C1277   1.434       .  S
C1244      C1816   1.434       .  S
O1245      C1255   1.262       .  A
O1246      C1256   1.262       .  A
O1246      V1253   1.898       .  S
O1247      C1257   1.262       .  A
O1248      C1258   1.262       .  A
O1248      V1253   1.898       .  S
O1249      C1258   1.263       .  A
O1249      V1254   1.902       .  S
O1250      C1257   1.263       .  A
O1251      C1256   1.263       .  A
O1251      V1254   1.902       .  S
O1252      C1255   1.263       .  A
V1253      V1254   2.091       .  T
C1255      C1280   1.434       .  S
C1256      C1282   1.434       .  S
C1257      C1296   1.434       .  S
C1258      C1298   1.434       .  S
O1259      C1269   1.262       .  A
O1259      V1267   1.898       .  S
O1260      C1270   1.262       .  A
O1260      V1267   1.898       .  S
O1261      C1271   1.262       .  A
O1261      V1267   1.898       .  S
O1262      C1272   1.262       .  A
O1262      V1267   1.898       .  S
O1263      C1272   1.263       .  A
O1263      V1268   1.902       .  S
O1264      C1271   1.263       .  A
O1264      V1268   1.902       .  S
O1265      C1270   1.263       .  A
O1265      V1268   1.902       .  S
O1266      C1269   1.263       .  A
O1266      V1268   1.902       .  S
V1267      V1268   2.091       .  T
C1269      C1285   1.434       .  S
C1270      C1311   1.434       .  S
C1271      C1314   1.434       .  S
C1272      C1319   1.434       .  S
C1273      C1274   1.205       .  T
C1275      C1276   1.206       .  T
C1277      C1278   1.205       .  T
C1279      C1280   1.205       .  T
C1281      C1282   1.205       .  T
C1283      C1284   1.206       .  T
C1285      C1286   1.206       .  T
C1287      C1288   1.205       .  T
C1288      C1772   1.434   1_545  S
C1289      C1290   1.205       .  T
C1291      C1292   1.206       .  T
C1293      C1294   1.205       .  T
C1295      C1296   1.205       .  T
C1297      C1298   1.205       .  T
C1299      C1300   1.206       .  T
C1301      C1302   1.205       .  T
C1303      C1744   1.434   1_545  S
C1303      C1304   1.205       .  T
C1305      C1306   1.205       .  T
C1307      C1308   1.205       .  T
C1308      C1741   1.434   1_545  S
C1309      C1310   1.205       .  T
C1311      C1312   1.206       .  T
C1313      C1314   1.206       .  T
C1315      C1316   1.205       .  T
C1316      C1769   1.434   1_545  S
C1317      C1318   1.205       .  T
C1319      C1320   1.206       .  T
C1321      C1322   1.401       .  A
C1321      C1326   1.402       .  A
C1321      C1584   1.439       .  S
C1322      C1323   1.402       .  A
C1322      H1327   1.085       .  S
C1323      C1324   1.402       .  A
C1323      C1408   1.470       .  S
C1324      C1325   1.400       .  A
C1324      H1328   1.085       .  S
C1325      C1326   1.402       .  A
C1325      C1581   1.439       .  S
C1326      H1329   1.084       .  S
C1330      C1331   1.401       .  A
C1330      C1577   1.439       .  S
C1331      C1332   1.402       .  A
C1331      H1336   1.085       .  S
C1332      C1370   1.470       .  S
C1333      C1334   1.400       .  A
C1333      H1337   1.085       .  S
C1334      C1335   1.402       .  A
C1334      C1579   1.439       .  S
C1335      H1338   1.084       .  S
C1339      C1344   1.401       .  A
C1339      C1576   1.439       .  S
C1340      C1341   1.402       .  A
C1340      H1345   1.084       .  S
C1341      C1342   1.400       .  A
C1341      C1574   1.439       .  S
C1342      H1346   1.085       .  S
C1343      C1344   1.402       .  A
C1343      C1456   1.470       .  S
C1344      H1347   1.085       .  S
C1348      C1349   1.401       .  A
C1348      C1353   1.401       .  A
C1348      C1571   1.439       .  S
C1349      C1350   1.401       .  A
C1349      H1354   1.084       .  S
C1350      C1351   1.401       .  A
C1350      C1570   1.439       .  S
C1351      C1352   1.403       .  A
C1351      H1355   1.085       .  S
C1352      C1353   1.403       .  A
C1352      C1428   1.470       .  S
C1353      H1356   1.085       .  S
C1357      C1358   1.401       .  A
C1357      C1362   1.401       .  A
C1357      C1565   1.439       .  S
C1358      H1363   1.084       .  S
C1359      C1360   1.401       .  A
C1359      C1568   1.439       .  S
C1360      H1364   1.085       .  S
C1361      C1362   1.403       .  A
C1362      H1365   1.085       .  S
C1366      N1367   1.358   1_556  A
C1366      N1371   1.358       .  A
N1367      C1368   1.358       .  A
C1368      C1374   1.470       .  S
C1368      N1369   1.358   1_554  A
N1369      C1370   1.358       .  A
C1370      N1371   1.358       .  A
C1372      C1373   1.401       .  A
C1372      C1563   1.439       .  S
C1373      H1378   1.085       .  S
C1374      C1375   1.402   1_554  A
C1375      C1376   1.400       .  A
C1375      H1379   1.085       .  S
C1376      C1377   1.402   1_556  A
C1376      C1561   1.439       .  S
C1377      H1380   1.084       .  S
O1381      C1391   1.262       .  A
O1382      C1392   1.262       .  A
O1382      V1389   1.898       .  S
O1383      C1393   1.262       .  A
O1384      C1394   1.262       .  A
O1384      V1389   1.898       .  S
O1385      C1394   1.263       .  A
O1385      V1390   1.901       .  S
O1386      C1393   1.263       .  A
O1387      C1392   1.263       .  A
O1387      V1390   1.901       .  S
O1388      C1391   1.263       .  A
V1389      V1390   2.091       .  T
C1391      C1573   1.434       .  S
C1392      C1569   1.434       .  S
C1393      C1582   1.434       .  S
C1394      C1566   1.434       .  S
C1395      C1396   1.401       .  A
C1395      C1400   1.401       .  A
C1395      C1557   1.439       .  S
C1396      C1397   1.401       .  A
C1396      H1401   1.084       .  S
C1397      C1398   1.401       .  A
C1397      C1559   1.439       .  S
C1398      C1399   1.403       .  A
C1398      H1402   1.085       .  S
C1399      C1400   1.403       .  A
C1399      C1404   1.470       .  S
C1400      H1403   1.085       .  S
C1404      N1405   1.358       .  A
C1404      N1409   1.358       .  A
N1405      C1406   1.358       .  A
C1406      C1412   1.470       .  S
C1406      N1407   1.358       .  A
N1407      C1408   1.358       .  A
C1408      N1409   1.358       .  A
C1410      C1411   1.401       .  A
C1410      C1415   1.402       .  A
C1410      C1555   1.439       .  S
C1411      C1412   1.402       .  A
C1411      H1416   1.085       .  S
C1412      C1413   1.402       .  A
C1413      C1414   1.400       .  A
C1413      H1417   1.085       .  S
C1414      C1415   1.402       .  A
C1414      C1553   1.439       .  S
C1415      H1418   1.084       .  S
C1419      C1420   1.401       .  A
C1419      C1424   1.402       .  A
C1419      C1550   1.439       .  S
C1420      C1421   1.402       .  A
C1420      H1425   1.085       .  S
C1421      C1422   1.402       .  A
C1421      C1432   1.470       .  S
C1422      C1423   1.400       .  A
C1422      H1426   1.085       .  S
C1423      C1424   1.402       .  A
C1423      C1551   1.439       .  S
C1424      H1427   1.084       .  S
C1428      N1429   1.358       .  A
C1428      N1433   1.358       .  A
N1429      C1430   1.358       .  A
C1430      C1438   1.470       .  S
C1430      N1431   1.358       .  A
N1431      C1432   1.358       .  A
C1432      N1433   1.358       .  A
C1434      C1435   1.402       .  A
C1434      C1439   1.401       .  A
C1434      C1547   1.439       .  S
C1435      C1436   1.402       .  A
C1435      H1440   1.084       .  S
C1436      C1437   1.400       .  A
C1436      C1545   1.439       .  S
C1437      C1438   1.402       .  A
C1437      H1441   1.085       .  S
C1438      C1439   1.402       .  A
C1439      H1442   1.085       .  S
C1443      C1444   1.401       .  A
C1443      C1448   1.401       .  A
C1443      C1542   1.439       .  S
C1444      H1449   1.084       .  S
C1445      C1446   1.401       .  A
C1445      C1543   1.439       .  S
C1446      C1447   1.403       .  A
C1446      H1450   1.085       .  S
C1447      C1452   1.470       .  S
C1448      H1451   1.085       .  S
C1452      N1453   1.358   1_556  A
C1452      N1457   1.358       .  A
N1453      C1454   1.358       .  A
C1454      C1460   1.470       .  S
C1454      N1455   1.358   1_554  A
N1455      C1456   1.358       .  A
C1456      N1457   1.358       .  A
C1458      C1459   1.401       .  A
C1458      C1539   1.439       .  S
C1459      H1464   1.085       .  S
C1460      C1461   1.402   1_554  A
C1461      C1462   1.400       .  A
C1461      H1465   1.085       .  S
C1462      C1463   1.402   1_556  A
C1462      C1537   1.439       .  S
C1463      H1466   1.084       .  S
O1467      C1477   1.263       .  A
O1467      V1475   1.901       .  S
O1468      C1478   1.263       .  A
O1468      V1475   1.902       .  S
O1469      C1479   1.263       .  A
O1469      V1475   1.902       .  S
O1470      C1480   1.263       .  A
O1470      V1475   1.901       .  S
O1471      C1480   1.262       .  A
O1471      V1476   1.898       .  S
O1472      C1479   1.262       .  A
O1472      V1476   1.898       .  S
O1473      C1478   1.262       .  A
O1473      V1476   1.898       .  S
O1474      C1477   1.262       .  A
O1474      V1476   1.898       .  S
V1475      V1476   2.091       .  T
C1477      C2100   1.434       .  S
C1478      C1538   1.434       .  S
C1479      C1554   1.434       .  S
C1480      C2095   1.434       .  S
O1481      C1491   1.263       .  A
O1481      V1489   1.902       .  S
O1482      C1492   1.263       .  A
O1482      V1489   1.902       .  S
O1483      C1493   1.263       .  A
O1483      V1489   1.902       .  S
O1484      C1494   1.263       .  A
O1484      V1489   1.902       .  S
O1485      C1494   1.262       .  A
O1485      V1490   1.898       .  S
O1486      C1493   1.262       .  A
O1486      V1490   1.898       .  S
O1487      C1492   1.262       .  A
O1487      V1490   1.898       .  S
O1488      C1491   1.262       .  A
O1488      V1490   1.898       .  S
V1489      V1490   2.091       .  T
C1491      C1564   1.434       .  S
C1492      C1556   1.434       .  S
C1493      C1548   1.434       .  S
C1494      C1540   1.434       .  S
O1495      C1505   1.262       .  A
O1495      V1503   1.898       .  S
O1496      C1506   1.262       .  A
O1496      V1503   1.898       .  S
O1497      C1507   1.262       .  A
O1497      V1503   1.898       .  S
O1498      C1508   1.262       .  A
O1498      V1503   1.898       .  S
O1499      C1508   1.263       .  A
O1499      V1504   1.902       .  S
O1500      C1507   1.263       .  A
O1500      V1504   1.901       .  S
O1501      C1506   1.263       .  A
O1501      V1504   1.901       .  S
O1502      C1505   1.263       .  A
O1502      V1504   1.902       .  S
V1503      V1504   2.091       .  T
C1505      C2108   1.434       .  S
C1506      C1558   1.434       .  S
C1507      C1541   1.434       .  S
C1508      C2080   1.434       .  S
O1509      C1519   1.262       .  A
O1510      C1520   1.262       .  A
O1510      V1517   1.898       .  S
O1511      C1521   1.262       .  A
O1512      C1522   1.262       .  A
O1512      V1517   1.898       .  S
O1513      C1522   1.263       .  A
O1513      V1518   1.902       .  S
O1514      C1521   1.263       .  A
O1515      C1520   1.263       .  A
O1515      V1518   1.902       .  S
O1516      C1519   1.263       .  A
V1517      V1518   2.091       .  T
C1519      C1544   1.434       .  S
C1520      C1546   1.434       .  S
C1521      C1560   1.434       .  S
C1522      C1562   1.434       .  S
O1523      C1533   1.262       .  A
O1523      V1531   1.898       .  S
O1524      C1534   1.262       .  A
O1524      V1531   1.898       .  S
O1525      C1535   1.262       .  A
O1525      V1531   1.898       .  S
O1526      C1536   1.262       .  A
O1526      V1531   1.898       .  S
O1527      C1536   1.263       .  A
O1527      V1532   1.902       .  S
O1528      C1535   1.263       .  A
O1528      V1532   1.902       .  S
O1529      C1534   1.263       .  A
O1529      V1532   1.902       .  S
O1530      C1533   1.263       .  A
O1530      V1532   1.902       .  S
V1531      V1532   2.091       .  T
C1533      C1549   1.434       .  S
C1534      C1575   1.434       .  S
C1535      C1578   1.434       .  S
C1536      C1583   1.434       .  S
C1537      C1538   1.205       .  T
C1539      C1540   1.206       .  T
C1541      C1542   1.205       .  T
C1543      C1544   1.205       .  T
C1545      C1546   1.205       .  T
C1547      C1548   1.206       .  T
C1549      C1550   1.206       .  T
C1551      C1552   1.205       .  T
C1552      C2036   1.434   1_545  S
C1553      C1554   1.205       .  T
C1555      C1556   1.206       .  T
C1557      C1558   1.205       .  T
C1559      C1560   1.205       .  T
C1561      C1562   1.205       .  T
C1563      C1564   1.206       .  T
C1565      C1566   1.205       .  T
C1567      C2008   1.434   1_545  S
C1567      C1568   1.205       .  T
C1569      C1570   1.205       .  T
C1571      C1572   1.205       .  T
C1572      C2005   1.434   1_545  S
C1573      C1574   1.205       .  T
C1575      C1576   1.206       .  T
C1577      C1578   1.206       .  T
C1579      C1580   1.205       .  T
C1580      C2033   1.434   1_545  S
C1581      C1582   1.205       .  T
C1583      C1584   1.206       .  T
C1585      C1586   1.401       .  A
C1585      C1590   1.402       .  A
C1585      C1848   1.439       .  S
C1586      C1587   1.402       .  A
C1586      H1591   1.085       .  S
C1587      C1588   1.402       .  A
C1587      C1672   1.470       .  S
C1588      C1589   1.400       .  A
C1588      H1592   1.085       .  S
C1589      C1590   1.402       .  A
C1589      C1845   1.439       .  S
C1590      H1593   1.084       .  S
C1594      C1595   1.401       .  A
C1594      C1863   1.402       .  A
C1594      C1841   1.439       .  S
C1595      C1596   1.402       .  A
C1595      H1600   1.085       .  S
C1596      C1861   1.402       .  A
C1596      C1634   1.470       .  S
C1597      C1860   1.402   1_554  A
C1597      C1598   1.400       .  A
C1597      H1601   1.085       .  S
C1598      C1599   1.402   1_554  A
C1598      C1843   1.439       .  S
C1599      C1858   1.402       .  A
C1599      H1602   1.084       .  S
C1603      C1868   1.402       .  A
C1603      C1608   1.401       .  A
C1603      C1840   1.439       .  S
C1604      C1867   1.402       .  A
C1604      C1605   1.402   1_556  A
C1604      H1609   1.084       .  S
C1605      C1606   1.400       .  A
C1605      C1838   1.439       .  S
C1606      C1871   1.402   1_554  A
C1606      H1610   1.085       .  S
C1607      C1870   1.402       .  A
C1607      C1608   1.402       .  A
C1607      C1720   1.470       .  S
C1608      H1611   1.085       .  S
C1612      C1613   1.401       .  A
C1612      C1617   1.401       .  A
C1612      C1835   1.439       .  S
C1613      C1614   1.401       .  A
C1613      H1618   1.084       .  S
C1614      C1615   1.401       .  A
C1614      C1834   1.439       .  S
C1615      C1616   1.403       .  A
C1615      H1619   1.085       .  S
C1616      C1617   1.403       .  A
C1616      C1692   1.470       .  S
C1617      H1620   1.085       .  S
C1621      C1622   1.401       .  A
C1621      C1626   1.401       .  A
C1621      C1829   1.439       .  S
C1622      C1887   1.401   1_554  A
C1622      H1627   1.084       .  S
C1623      C1886   1.401       .  A
C1623      C1624   1.401       .  A
C1623      C1832   1.439       .  S
C1624      C1889   1.403       .  A
C1624      H1628   1.085       .  S
C1625      C1888   1.403       .  A
C1625      C1626   1.403   1_556  A
C1625      C1894   1.470       .  S
C1626      H1629   1.085       .  S
C1630      C1889   1.470       .  S
C1630      N1631   1.358       .  A
C1630      N1635   1.358       .  A
N1631      C1632   1.358       .  A
C1632      C1638   1.470       .  S
C1632      N1633   1.358       .  A
N1633      C1634   1.358       .  A
C1634      N1635   1.358       .  A
C1636      C1637   1.401       .  A
C1636      C1905   1.402       .  A
C1636      C1827   1.439       .  S
C1637      C1902   1.402       .  A
C1637      H1642   1.085       .  S
C1638      C1901   1.402       .  A
C1638      C1639   1.402       .  A
C1639      C1640   1.400       .  A
C1639      H1643   1.085       .  S
C1640      C1641   1.402       .  A
C1640      C1825   1.439       .  S
C1641      C1900   1.402       .  A
C1641      H1644   1.084       .  S
O1645      C1655   1.262       .  A
O1646      C1656   1.262       .  A
O1646      V1653   1.898       .  S
O1647      C1657   1.262       .  A
O1648      C1658   1.262       .  A
O1648      V1653   1.898       .  S
O1649      C1658   1.263       .  A
O1649      V1654   1.901       .  S
O1650      C1657   1.263       .  A
O1651      C1656   1.263       .  A
O1651      V1654   1.901       .  S
O1652      C1655   1.263       .  A
V1653      V1654   2.091       .  T
C1655      C1837   1.434       .  S
C1656      C1833   1.434       .  S
C1657      C1846   1.434       .  S
C1658      C1830   1.434       .  S
C1659      C1660   1.401       .  A
C1659      C1664   1.401       .  A
C1659      C1821   1.439       .  S
C1660      C1661   1.401       .  A
C1660      H1665   1.084       .  S
C1661      C1662   1.401       .  A
C1661      C1823   1.439       .  S
C1662      C1663   1.403       .  A
C1662      H1666   1.085       .  S
C1663      C1664   1.403       .  A
C1663      C1668   1.470       .  S
C1664      H1667   1.085       .  S
C1668      N1669   1.358       .  A
C1668      N1673   1.358       .  A
N1669      C1670   1.358       .  A
C1670      C1676   1.470       .  S
C1670      N1671   1.358       .  A
N1671      C1672   1.358       .  A
C1672      N1673   1.358       .  A
C1674      C1675   1.401       .  A
C1674      C1679   1.402       .  A
C1674      C1819   1.439       .  S
C1675      C1676   1.402       .  A
C1675      H1680   1.085       .  S
C1676      C1677   1.402       .  A
C1677      C1678   1.400       .  A
C1677      H1681   1.085       .  S
C1678      C1679   1.402       .  A
C1678      C1817   1.439       .  S
C1679      H1682   1.084       .  S
C1683      C1684   1.401       .  A
C1683      C1688   1.402       .  A
C1683      C1814   1.439       .  S
C1684      C1685   1.402       .  A
C1684      H1689   1.085       .  S
C1685      C1686   1.402       .  A
C1685      C1696   1.470       .  S
C1686      C1687   1.400       .  A
C1686      H1690   1.085       .  S
C1687      C1688   1.402       .  A
C1687      C1815   1.439       .  S
C1688      H1691   1.084       .  S
C1692      N1693   1.358       .  A
C1692      N1697   1.358       .  A
N1693      C1694   1.358       .  A
C1694      C1702   1.470       .  S
C1694      N1695   1.358       .  A
N1695      C1696   1.358       .  A
C1696      N1697   1.358       .  A
C1698      C1699   1.402       .  A
C1698      C1703   1.401       .  A
C1698      C1811   1.439       .  S
C1699      C1700   1.402       .  A
C1699      H1704   1.084       .  S
C1700      C1701   1.400       .  A
C1700      C1809   1.439       .  S
C1701      C1702   1.402       .  A
C1701      H1705   1.085       .  S
C1702      C1703   1.402       .  A
C1703      H1706   1.085       .  S
C1707      C1708   1.401   1_554  A
C1707      C1712   1.401       .  A
C1707      C1806   1.439       .  S
C1708      C1973   1.401       .  A
C1708      H1713   1.084       .  S
C1709      C1972   1.401       .  A
C1709      C1710   1.401       .  A
C1709      C1807   1.439       .  S
C1710      C1711   1.403       .  A
C1710      H1714   1.085       .  S
C1711      C1976   1.403       .  A
C1711      C1716   1.470       .  S
C1712      C1975   1.403   1_554  A
C1712      H1715   1.085       .  S
C1716      N1717   1.358       .  A
C1716      N1721   1.358       .  A
N1717      C1718   1.358       .  A
C1718      C1724   1.470       .  S
C1718      N1719   1.358       .  A
N1719      C1720   1.358       .  A
C1720      N1721   1.358       .  A
C1722      C1723   1.401       .  A
C1722      C1991   1.402       .  A
C1722      C1803   1.439       .  S
C1723      C1988   1.402       .  A
C1723      H1728   1.085       .  S
C1724      C1987   1.402       .  A
C1724      C1725   1.402       .  A
C1725      C1726   1.400       .  A
C1725      H1729   1.085       .  S
C1726      C1727   1.402       .  A
C1726      C1801   1.439       .  S
C1727      C1986   1.402       .  A
C1727      H1730   1.084       .  S
O1731      C1741   1.263       .  A
O1731      V1739   1.901       .  S
O1732      C1742   1.263       .  A
O1732      V1739   1.902       .  S
O1733      C1743   1.263       .  A
O1733      V1739   1.902       .  S
O1734      C1744   1.263       .  A
O1734      V1739   1.901       .  S
O1735      C1744   1.262       .  A
O1735      V1740   1.898       .  S
O1736      C1743   1.262       .  A
O1736      V1740   1.898       .  S
O1737      C1742   1.262       .  A
O1737      V1740   1.898       .  S
O1738      C1741   1.262       .  A
O1738      V1740   1.898       .  S
V1739      V1740   2.091       .  T
C1742      C1802   1.434       .  S
C1743      C1818   1.434       .  S
O1745      C1755   1.263       .  A
O1745      V1753   1.902       .  S
O1746      C1756   1.263       .  A
O1746      V1753   1.902       .  S
O1747      C1757   1.263       .  A
O1747      V1753   1.902       .  S
O1748      C1758   1.263       .  A
O1748      V1753   1.902       .  S
O1749      C1758   1.262       .  A
O1749      V1754   1.898       .  S
O1750      C1757   1.262       .  A
O1750      V1754   1.898       .  S
O1751      C1756   1.262       .  A
O1751      V1754   1.898       .  S
O1752      C1755   1.262       .  A
O1752      V1754   1.898       .  S
V1753      V1754   2.091       .  T
C1755      C1828   1.434       .  S
C1756      C1820   1.434       .  S
C1757      C1812   1.434       .  S
C1758      C1804   1.434       .  S
O1759      C1769   1.262       .  A
O1759      V1767   1.898       .  S
O1760      C1770   1.262       .  A
O1760      V1767   1.898       .  S
O1761      C1771   1.262       .  A
O1761      V1767   1.898       .  S
O1762      C1772   1.262       .  A
O1762      V1767   1.898       .  S
O1763      C1772   1.263       .  A
O1763      V1768   1.902       .  S
O1764      C1771   1.263       .  A
O1764      V1768   1.901       .  S
O1765      C1770   1.263       .  A
O1765      V1768   1.901       .  S
O1766      C1769   1.263       .  A
O1766      V1768   1.902       .  S
V1767      V1768   2.091       .  T
C1770      C1822   1.434       .  S
C1771      C1805   1.434       .  S
O1773      C1783   1.262       .  A
O1774      C1784   1.262       .  A
O1774      V1781   1.898       .  S
O1775      C1785   1.262       .  A
O1776      C1786   1.262       .  A
O1776      V1781   1.898       .  S
O1777      C1786   1.263       .  A
O1777      V1782   1.902       .  S
O1778      C1785   1.263       .  A
O1779      C1784   1.263       .  A
O1779      V1782   1.902       .  S
O1780      C1783   1.263       .  A
V1781      V1782   2.091       .  T
C1783      C1808   1.434       .  S
C1784      C1810   1.434       .  S
C1785      C1824   1.434       .  S
C1786      C1826   1.434       .  S
O1787      C1797   1.262       .  A
O1787      V1795   1.898       .  S
O1788      C1798   1.262       .  A
O1788      V1795   1.898       .  S
O1789      C1799   1.262       .  A
O1789      V1795   1.898       .  S
O1790      C1800   1.262       .  A
O1790      V1795   1.898       .  S
O1791      C1800   1.263       .  A
O1791      V1796   1.902       .  S
O1792      C1799   1.263       .  A
O1792      V1796   1.902       .  S
O1793      C1798   1.263       .  A
O1793      V1796   1.902       .  S
O1794      C1797   1.263       .  A
O1794      V1796   1.902       .  S
V1795      V1796   2.091       .  T
C1797      C1813   1.434       .  S
C1798      C1839   1.434       .  S
C1799      C1842   1.434       .  S
C1800      C1847   1.434       .  S
C1801      C1802   1.205       .  T
C1803      C1804   1.206       .  T
C1805      C1806   1.205       .  T
C1807      C1808   1.205       .  T
C1809      C1810   1.205       .  T
C1811      C1812   1.206       .  T
C1813      C1814   1.206       .  T
C1815      C1816   1.205       .  T
C1817      C1818   1.205       .  T
C1819      C1820   1.206       .  T
C1821      C1822   1.205       .  T
C1823      C1824   1.205       .  T
C1825      C1826   1.205       .  T
C1827      C1828   1.206       .  T
C1829      C1830   1.205       .  T
C1831      C1832   1.205       .  T
C1833      C1834   1.205       .  T
C1835      C1836   1.205       .  T
C1837      C1838   1.205       .  T
C1839      C1840   1.206       .  T
C1841      C1842   1.206       .  T
C1843      C1844   1.205       .  T
C1845      C1846   1.205       .  T
C1847      C1848   1.206       .  T
C1849      C1850   1.401       .  A
C1849      C1854   1.402       .  A
C1849      C2112   1.439       .  S
C1850      C1851   1.402       .  A
C1850      H1855   1.085       .  S
C1851      C1852   1.402       .  A
C1851      C1936   1.470       .  S
C1852      C1853   1.400       .  A
C1852      H1856   1.085       .  S
C1853      C1854   1.402       .  A
C1853      C2109   1.439       .  S
C1854      H1857   1.084       .  S
C1858      C1859   1.401       .  A
C1858      C2105   1.439       .  S
C1859      C1860   1.402       .  A
C1859      H1864   1.085       .  S
C1860      C1898   1.470       .  S
C1861      C1862   1.400       .  A
C1861      H1865   1.085       .  S
C1862      C1863   1.402       .  A
C1862      C2107   1.439       .  S
C1863      H1866   1.084       .  S
C1867      C1872   1.401       .  A
C1867      C2104   1.439       .  S
C1868      C1869   1.402       .  A
C1868      H1873   1.084       .  S
C1869      C1870   1.400       .  A
C1869      C2102   1.439       .  S
C1870      H1874   1.085       .  S
C1871      C1872   1.402       .  A
C1871      C1984   1.470       .  S
C1872      H1875   1.085       .  S
C1876      C1877   1.401       .  A
C1876      C1881   1.401       .  A
C1876      C2099   1.439       .  S
C1877      C1878   1.401       .  A
C1877      H1882   1.084       .  S
C1878      C1879   1.401       .  A
C1878      C2098   1.439       .  S
C1879      C1880   1.403       .  A
C1879      H1883   1.085       .  S
C1880      C1881   1.403       .  A
C1880      C1956   1.470       .  S
C1881      H1884   1.085       .  S
C1885      C1886   1.401       .  A
C1885      C1890   1.401       .  A
C1885      C2093   1.439       .  S
C1886      H1891   1.084       .  S
C1887      C1888   1.401       .  A
C1887      C2096   1.439       .  S
C1888      H1892   1.085       .  S
C1889      C1890   1.403       .  A
C1890      H1893   1.085       .  S
C1894      N1895   1.358   1_556  A
C1894      N1899   1.358       .  A
N1895      C1896   1.358       .  A
C1896      C1902   1.470       .  S
C1896      N1897   1.358   1_554  A
N1897      C1898   1.358       .  A
C1898      N1899   1.358       .  A
C1900      C1901   1.401       .  A
C1900      C2091   1.439       .  S
C1901      H1906   1.085       .  S
C1902      C1903   1.402   1_554  A
C1903      C1904   1.400       .  A
C1903      H1907   1.085       .  S
C1904      C1905   1.402   1_556  A
C1904      C2089   1.439       .  S
C1905      H1908   1.084       .  S
O1909      C1919   1.262       .  A
O1910      C1920   1.262       .  A
O1910      V1917   1.898       .  S
O1911      C1921   1.262       .  A
O1912      C1922   1.262       .  A
O1912      V1917   1.898       .  S
O1913      C1922   1.263       .  A
O1913      V1918   1.901       .  S
O1914      C1921   1.263       .  A
O1915      C1920   1.263       .  A
O1915      V1918   1.901       .  S
O1916      C1919   1.263       .  A
V1917      V1918   2.091       .  T
C1919      C2101   1.434       .  S
C1920      C2097   1.434       .  S
C1921      C2110   1.434       .  S
C1922      C2094   1.434       .  S
C1923      C1924   1.401       .  A
C1923      C1928   1.401       .  A
C1923      C2085   1.439       .  S
C1924      C1925   1.401       .  A
C1924      H1929   1.084       .  S
C1925      C1926   1.401       .  A
C1925      C2087   1.439       .  S
C1926      C1927   1.403       .  A
C1926      H1930   1.085       .  S
C1927      C1928   1.403       .  A
C1927      C1932   1.470       .  S
C1928      H1931   1.085       .  S
C1932      N1933   1.358       .  A
C1932      N1937   1.358       .  A
N1933      C1934   1.358       .  A
C1934      C1940   1.470       .  S
C1934      N1935   1.358       .  A
N1935      C1936   1.358       .  A
C1936      N1937   1.358       .  A
C1938      C1939   1.401       .  A
C1938      C1943   1.402       .  A
C1938      C2083   1.439       .  S
C1939      C1940   1.402       .  A
C1939      H1944   1.085       .  S
C1940      C1941   1.402       .  A
C1941      C1942   1.400       .  A
C1941      H1945   1.085       .  S
C1942      C1943   1.402       .  A
C1942      C2081   1.439       .  S
C1943      H1946   1.084       .  S
C1947      C1948   1.401       .  A
C1947      C1952   1.402       .  A
C1947      C2078   1.439       .  S
C1948      C1949   1.402       .  A
C1948      H1953   1.085       .  S
C1949      C1950   1.402       .  A
C1949      C1960   1.470       .  S
C1950      C1951   1.400       .  A
C1950      H1954   1.085       .  S
C1951      C1952   1.402       .  A
C1951      C2079   1.439       .  S
C1952      H1955   1.084       .  S
C1956      N1957   1.358       .  A
C1956      N1961   1.358       .  A
N1957      C1958   1.358       .  A
C1958      C1966   1.470       .  S
C1958      N1959   1.358       .  A
N1959      C1960   1.358       .  A
C1960      N1961   1.358       .  A
C1962      C1963   1.402       .  A
C1962      C1967   1.401       .  A
C1962      C2075   1.439       .  S
C1963      C1964   1.402       .  A
C1963      H1968   1.084       .  S
C1964      C1965   1.400       .  A
C1964      C2073   1.439       .  S
C1965      C1966   1.402       .  A
C1965      H1969   1.085       .  S
C1966      C1967   1.402       .  A
C1967      H1970   1.085       .  S
C1971      C1972   1.401       .  A
C1971      C1976   1.401       .  A
C1971      C2070   1.439       .  S
C1972      H1977   1.084       .  S
C1973      C1974   1.401       .  A
C1973      C2071   1.439       .  S
C1974      C1975   1.403       .  A
C1974      H1978   1.085       .  S
C1975      C1980   1.470       .  S
C1976      H1979   1.085       .  S
C1980      N1981   1.358   1_556  A
C1980      N1985   1.358       .  A
N1981      C1982   1.358       .  A
C1982      C1988   1.470       .  S
C1982      N1983   1.358   1_554  A
N1983      C1984   1.358       .  A
C1984      N1985   1.358       .  A
C1986      C1987   1.401       .  A
C1986      C2067   1.439       .  S
C1987      H1992   1.085       .  S
C1988      C1989   1.402   1_554  A
C1989      C1990   1.400       .  A
C1989      H1993   1.085       .  S
C1990      C1991   1.402   1_556  A
C1990      C2065   1.439       .  S
C1991      H1994   1.084       .  S
O1995      C2005   1.263       .  A
O1995      V2003   1.901       .  S
O1996      C2006   1.263       .  A
O1996      V2003   1.902       .  S
O1997      C2007   1.263       .  A
O1997      V2003   1.902       .  S
O1998      C2008   1.263       .  A
O1998      V2003   1.901       .  S
O1999      C2008   1.262       .  A
O1999      V2004   1.898       .  S
O2000      C2007   1.262       .  A
O2000      V2004   1.898       .  S
O2001      C2006   1.262       .  A
O2001      V2004   1.898       .  S
O2002      C2005   1.262       .  A
O2002      V2004   1.898       .  S
V2003      V2004   2.091       .  T
C2006      C2066   1.434       .  S
C2007      C2082   1.434       .  S
O2009      C2019   1.263       .  A
O2009      V2017   1.902       .  S
O2010      C2020   1.263       .  A
O2010      V2017   1.902       .  S
O2011      C2021   1.263       .  A
O2011      V2017   1.902       .  S
O2012      C2022   1.263       .  A
O2012      V2017   1.902       .  S
O2013      C2022   1.262       .  A
O2013      V2018   1.898       .  S
O2014      C2021   1.262       .  A
O2014      V2018   1.898       .  S
O2015      C2020   1.262       .  A
O2015      V2018   1.898       .  S
O2016      C2019   1.262       .  A
O2016      V2018   1.898       .  S
V2017      V2018   2.091       .  T
C2019      C2092   1.434       .  S
C2020      C2084   1.434       .  S
C2021      C2076   1.434       .  S
C2022      C2068   1.434       .  S
O2023      C2033   1.262       .  A
O2023      V2031   1.898       .  S
O2024      C2034   1.262       .  A
O2024      V2031   1.898       .  S
O2025      C2035   1.262       .  A
O2025      V2031   1.898       .  S
O2026      C2036   1.262       .  A
O2026      V2031   1.898       .  S
O2027      C2036   1.263       .  A
O2027      V2032   1.902       .  S
O2028      C2035   1.263       .  A
O2028      V2032   1.901       .  S
O2029      C2034   1.263       .  A
O2029      V2032   1.901       .  S
O2030      C2033   1.263       .  A
O2030      V2032   1.902       .  S
V2031      V2032   2.091       .  T
C2034      C2086   1.434       .  S
C2035      C2069   1.434       .  S
O2037      C2047   1.262       .  A
O2038      C2048   1.262       .  A
O2038      V2045   1.898       .  S
O2039      C2049   1.262       .  A
O2040      C2050   1.262       .  A
O2040      V2045   1.898       .  S
O2041      C2050   1.263       .  A
O2041      V2046   1.902       .  S
O2042      C2049   1.263       .  A
O2043      C2048   1.263       .  A
O2043      V2046   1.902       .  S
O2044      C2047   1.263       .  A
V2045      V2046   2.091       .  T
C2047      C2072   1.434       .  S
C2048      C2074   1.434       .  S
C2049      C2088   1.434       .  S
C2050      C2090   1.434       .  S
O2051      C2061   1.262       .  A
O2051      V2059   1.898       .  S
O2052      C2062   1.262       .  A
O2052      V2059   1.898       .  S
O2053      C2063   1.262       .  A
O2053      V2059   1.898       .  S
O2054      C2064   1.262       .  A
O2054      V2059   1.898       .  S
O2055      C2064   1.263       .  A
O2055      V2060   1.902       .  S
O2056      C2063   1.263       .  A
O2056      V2060   1.902       .  S
O2057      C2062   1.263       .  A
O2057      V2060   1.902       .  S
O2058      C2061   1.263       .  A
O2058      V2060   1.902       .  S
V2059      V2060   2.091       .  T
C2061      C2077   1.434       .  S
C2062      C2103   1.434       .  S
C2063      C2106   1.434       .  S
C2064      C2111   1.434       .  S
C2065      C2066   1.205       .  T
C2067      C2068   1.206       .  T
C2069      C2070   1.205       .  T
C2071      C2072   1.205       .  T
C2073      C2074   1.205       .  T
C2075      C2076   1.206       .  T
C2077      C2078   1.206       .  T
C2079      C2080   1.205       .  T
C2081      C2082   1.205       .  T
C2083      C2084   1.206       .  T
C2085      C2086   1.205       .  T
C2087      C2088   1.205       .  T
C2089      C2090   1.205       .  T
C2091      C2092   1.206       .  T
C2093      C2094   1.205       .  T
C2095      C2096   1.205       .  T
C2097      C2098   1.205       .  T
C2099      C2100   1.205       .  T
C2101      C2102   1.205       .  T
C2103      C2104   1.206       .  T
C2105      C2106   1.206       .  T
C2107      C2108   1.205       .  T
C2109      C2110   1.205       .  T
C2111      C2112   1.206       .  T
